<routes xmlns:xsi="http://www.w3.org/2001/XMLSchema-instance" xsi:noNamespaceSchemaLocation="http://sumo.dlr.de/xsd/routes_file.xsd">
    <trip id="0" depart="0.00" type="bike" from="edgeOutBottom" to="edgeInTop" />
    <trip id="1" depart="1.00" type="bike" from="edgeOutBottom" to="edgeInLeft" />
    <trip id="2" depart="2.00" type="car" from="edgeOutBottom" to="edgeInRight" />
    <trip id="3" depart="3.00" type="bike" from="edgeOutRight" to="edgeInLeft" />
    <trip id="4" depart="4.00" type="bike" from="edgeOutLeft" to="edgeInRight" />
    <trip id="5" depart="5.00" type="bike" from="edgeOutTop" to="edgeInBottom" />
    <trip id="6" depart="6.00" type="car" from="edgeOutLeft" to="edgeInBottom" />
    <trip id="7" depart="7.00" type="car" from="edgeOutBottom" to="edgeInTop" />
    <trip id="8" depart="8.00" type="bus" from="edgeOutBottom" to="edgeInLeft" />
    <trip id="9" depart="9.00" type="bike" from="edgeOutBottom" to="edgeInLeft" />
    <trip id="10" depart="10.00" type="bike" from="edgeOutRight" to="edgeInTop" />
    <trip id="11" depart="11.00" type="bus" from="edgeOutTop" to="edgeInLeft" />
    <trip id="12" depart="12.00" type="car" from="edgeOutLeft" to="edgeInRight" />
    <trip id="13" depart="13.00" type="bike" from="edgeOutBottom" to="edgeInLeft" />
    <trip id="14" depart="14.00" type="car" from="edgeOutLeft" to="edgeInTop" />
    <trip id="15" depart="15.00" type="bike" from="edgeOutRight" to="edgeInLeft" />
    <trip id="16" depart="16.00" type="bus" from="edgeOutRight" to="edgeInBottom" />
    <trip id="17" depart="17.00" type="car" from="edgeOutLeft" to="edgeInRight" />
    <trip id="18" depart="18.00" type="car" from="edgeOutRight" to="edgeInLeft" />
    <trip id="19" depart="19.00" type="bus" from="edgeOutRight" to="edgeInBottom" />
    <trip id="20" depart="20.00" type="car" from="edgeOutLeft" to="edgeInTop" />
    <trip id="21" depart="21.00" type="bus" from="edgeOutBottom" to="edgeInRight" />
    <trip id="22" depart="22.00" type="bus" from="edgeOutTop" to="edgeInRight" />
    <trip id="23" depart="23.00" type="bike" from="edgeOutTop" to="edgeInBottom" />
    <trip id="24" depart="24.00" type="car" from="edgeOutBottom" to="edgeInLeft" />
    <trip id="25" depart="25.00" type="bus" from="edgeOutRight" to="edgeInLeft" />
    <trip id="26" depart="26.00" type="bike" from="edgeOutTop" to="edgeInLeft" />
    <trip id="27" depart="27.00" type="car" from="edgeOutRight" to="edgeInTop" />
    <trip id="28" depart="28.00" type="car" from="edgeOutRight" to="edgeInLeft" />
    <trip id="29" depart="29.00" type="car" from="edgeOutLeft" to="edgeInTop" />
    <trip id="30" depart="30.00" type="car" from="edgeOutBottom" to="edgeInTop" />
    <trip id="31" depart="31.00" type="bus" from="edgeOutLeft" to="edgeInRight" />
    <trip id="32" depart="32.00" type="bike" from="edgeOutBottom" to="edgeInRight" />
    <trip id="33" depart="33.00" type="bus" from="edgeOutRight" to="edgeInBottom" />
    <trip id="34" depart="34.00" type="bus" from="edgeOutLeft" to="edgeInBottom" />
    <trip id="35" depart="35.00" type="car" from="edgeOutLeft" to="edgeInBottom" />
    <trip id="36" depart="36.00" type="car" from="edgeOutRight" to="edgeInTop" />
    <trip id="37" depart="37.00" type="bike" from="edgeOutRight" to="edgeInLeft" />
    <trip id="38" depart="38.00" type="bike" from="edgeOutRight" to="edgeInLeft" />
    <trip id="39" depart="39.00" type="car" from="edgeOutRight" to="edgeInTop" />
    <trip id="40" depart="40.00" type="car" from="edgeOutTop" to="edgeInLeft" />
    <trip id="41" depart="41.00" type="car" from="edgeOutTop" to="edgeInRight" />
    <trip id="42" depart="42.00" type="bus" from="edgeOutBottom" to="edgeInTop" />
    <trip id="43" depart="43.00" type="car" from="edgeOutRight" to="edgeInLeft" />
    <trip id="44" depart="44.00" type="bike" from="edgeOutTop" to="edgeInLeft" />
    <trip id="45" depart="45.00" type="bike" from="edgeOutBottom" to="edgeInTop" />
    <trip id="46" depart="46.00" type="bike" from="edgeOutLeft" to="edgeInBottom" />
    <trip id="47" depart="47.00" type="bus" from="edgeOutBottom" to="edgeInRight" />
    <trip id="48" depart="48.00" type="bus" from="edgeOutBottom" to="edgeInTop" />
    <trip id="49" depart="49.00" type="car" from="edgeOutBottom" to="edgeInTop" />
    <trip id="50" depart="50.00" type="car" from="edgeOutTop" to="edgeInRight" />
    <trip id="51" depart="51.00" type="bus" from="edgeOutTop" to="edgeInLeft" />
    <trip id="52" depart="52.00" type="bike" from="edgeOutLeft" to="edgeInTop" />
    <trip id="53" depart="53.00" type="car" from="edgeOutBottom" to="edgeInRight" />
    <trip id="54" depart="54.00" type="car" from="edgeOutLeft" to="edgeInTop" />
    <trip id="55" depart="55.00" type="bus" from="edgeOutRight" to="edgeInTop" />
    <trip id="56" depart="56.00" type="bus" from="edgeOutLeft" to="edgeInBottom" />
    <trip id="57" depart="57.00" type="bike" from="edgeOutRight" to="edgeInBottom" />
    <trip id="58" depart="58.00" type="bus" from="edgeOutRight" to="edgeInTop" />
    <trip id="59" depart="59.00" type="car" from="edgeOutTop" to="edgeInLeft" />
    <trip id="60" depart="60.00" type="bike" from="edgeOutBottom" to="edgeInTop" />
    <trip id="61" depart="61.00" type="bike" from="edgeOutLeft" to="edgeInTop" />
    <trip id="62" depart="62.00" type="car" from="edgeOutRight" to="edgeInBottom" />
    <trip id="63" depart="63.00" type="bus" from="edgeOutTop" to="edgeInBottom" />
    <trip id="64" depart="64.00" type="bus" from="edgeOutBottom" to="edgeInTop" />
    <trip id="65" depart="65.00" type="car" from="edgeOutBottom" to="edgeInLeft" />
    <trip id="66" depart="66.00" type="car" from="edgeOutRight" to="edgeInLeft" />
    <trip id="67" depart="67.00" type="car" from="edgeOutLeft" to="edgeInTop" />
    <trip id="68" depart="68.00" type="bike" from="edgeOutRight" to="edgeInLeft" />
    <trip id="69" depart="69.00" type="bus" from="edgeOutLeft" to="edgeInTop" />
    <trip id="70" depart="70.00" type="bike" from="edgeOutBottom" to="edgeInRight" />
    <trip id="71" depart="71.00" type="bike" from="edgeOutTop" to="edgeInLeft" />
    <trip id="72" depart="72.00" type="car" from="edgeOutBottom" to="edgeInRight" />
    <trip id="73" depart="73.00" type="bike" from="edgeOutRight" to="edgeInLeft" />
    <trip id="74" depart="74.00" type="car" from="edgeOutTop" to="edgeInLeft" />
    <trip id="75" depart="75.00" type="bus" from="edgeOutBottom" to="edgeInLeft" />
    <trip id="76" depart="76.00" type="bus" from="edgeOutBottom" to="edgeInRight" />
    <trip id="77" depart="77.00" type="car" from="edgeOutBottom" to="edgeInRight" />
    <trip id="78" depart="78.00" type="bus" from="edgeOutLeft" to="edgeInBottom" />
    <trip id="79" depart="79.00" type="bus" from="edgeOutLeft" to="edgeInRight" />
    <trip id="80" depart="80.00" type="bus" from="edgeOutRight" to="edgeInTop" />
    <trip id="81" depart="81.00" type="car" from="edgeOutRight" to="edgeInLeft" />
    <trip id="82" depart="82.00" type="car" from="edgeOutBottom" to="edgeInRight" />
    <trip id="83" depart="83.00" type="bike" from="edgeOutTop" to="edgeInLeft" />
    <trip id="84" depart="84.00" type="car" from="edgeOutBottom" to="edgeInLeft" />
    <trip id="85" depart="85.00" type="bus" from="edgeOutRight" to="edgeInBottom" />
    <trip id="86" depart="86.00" type="car" from="edgeOutTop" to="edgeInRight" />
    <trip id="87" depart="87.00" type="bike" from="edgeOutLeft" to="edgeInTop" />
    <trip id="88" depart="88.00" type="bus" from="edgeOutLeft" to="edgeInBottom" />
    <trip id="89" depart="89.00" type="car" from="edgeOutBottom" to="edgeInTop" />
    <trip id="90" depart="90.00" type="bike" from="edgeOutTop" to="edgeInBottom" />
    <trip id="91" depart="91.00" type="bike" from="edgeOutTop" to="edgeInRight" />
    <trip id="92" depart="92.00" type="bike" from="edgeOutTop" to="edgeInBottom" />
    <trip id="93" depart="93.00" type="car" from="edgeOutLeft" to="edgeInBottom" />
    <trip id="94" depart="94.00" type="bike" from="edgeOutRight" to="edgeInLeft" />
    <trip id="95" depart="95.00" type="car" from="edgeOutRight" to="edgeInBottom" />
    <trip id="96" depart="96.00" type="bus" from="edgeOutBottom" to="edgeInTop" />
    <trip id="97" depart="97.00" type="bus" from="edgeOutBottom" to="edgeInLeft" />
    <trip id="98" depart="98.00" type="bus" from="edgeOutLeft" to="edgeInRight" />
    <trip id="99" depart="99.00" type="bus" from="edgeOutTop" to="edgeInRight" />
    <trip id="100" depart="100.00" type="bike" from="edgeOutTop" to="edgeInBottom" />
    <trip id="101" depart="101.00" type="bike" from="edgeOutLeft" to="edgeInTop" />
    <trip id="102" depart="102.00" type="bike" from="edgeOutLeft" to="edgeInRight" />
    <trip id="103" depart="103.00" type="car" from="edgeOutTop" to="edgeInBottom" />
    <trip id="104" depart="104.00" type="car" from="edgeOutBottom" to="edgeInTop" />
    <trip id="105" depart="105.00" type="bus" from="edgeOutTop" to="edgeInRight" />
    <trip id="106" depart="106.00" type="bike" from="edgeOutTop" to="edgeInRight" />
    <trip id="107" depart="107.00" type="bike" from="edgeOutBottom" to="edgeInTop" />
    <trip id="108" depart="108.00" type="car" from="edgeOutTop" to="edgeInBottom" />
    <trip id="109" depart="109.00" type="bike" from="edgeOutRight" to="edgeInLeft" />
    <trip id="110" depart="110.00" type="bike" from="edgeOutRight" to="edgeInTop" />
    <trip id="111" depart="111.00" type="bus" from="edgeOutLeft" to="edgeInRight" />
    <trip id="112" depart="112.00" type="bike" from="edgeOutTop" to="edgeInBottom" />
    <trip id="113" depart="113.00" type="bike" from="edgeOutTop" to="edgeInBottom" />
    <trip id="114" depart="114.00" type="bike" from="edgeOutBottom" to="edgeInLeft" />
    <trip id="115" depart="115.00" type="bus" from="edgeOutTop" to="edgeInBottom" />
    <trip id="116" depart="116.00" type="car" from="edgeOutRight" to="edgeInLeft" />
    <trip id="117" depart="117.00" type="bus" from="edgeOutLeft" to="edgeInBottom" />
    <trip id="118" depart="118.00" type="bike" from="edgeOutRight" to="edgeInLeft" />
    <trip id="119" depart="119.00" type="bus" from="edgeOutLeft" to="edgeInTop" />
    <trip id="120" depart="120.00" type="car" from="edgeOutLeft" to="edgeInTop" />
    <trip id="121" depart="121.00" type="bike" from="edgeOutRight" to="edgeInBottom" />
    <trip id="122" depart="122.00" type="bike" from="edgeOutTop" to="edgeInLeft" />
    <trip id="123" depart="123.00" type="bus" from="edgeOutBottom" to="edgeInTop" />
    <trip id="124" depart="124.00" type="bus" from="edgeOutTop" to="edgeInLeft" />
    <trip id="125" depart="125.00" type="bus" from="edgeOutTop" to="edgeInBottom" />
    <trip id="126" depart="126.00" type="bus" from="edgeOutTop" to="edgeInLeft" />
    <trip id="127" depart="127.00" type="bus" from="edgeOutLeft" to="edgeInRight" />
    <trip id="128" depart="128.00" type="car" from="edgeOutRight" to="edgeInLeft" />
    <trip id="129" depart="129.00" type="bike" from="edgeOutTop" to="edgeInBottom" />
    <trip id="130" depart="130.00" type="bike" from="edgeOutTop" to="edgeInBottom" />
    <trip id="131" depart="131.00" type="bike" from="edgeOutRight" to="edgeInBottom" />
    <trip id="132" depart="132.00" type="bike" from="edgeOutLeft" to="edgeInTop" />
    <trip id="133" depart="133.00" type="car" from="edgeOutTop" to="edgeInBottom" />
    <trip id="134" depart="134.00" type="car" from="edgeOutBottom" to="edgeInLeft" />
    <trip id="135" depart="135.00" type="bike" from="edgeOutRight" to="edgeInLeft" />
    <trip id="136" depart="136.00" type="car" from="edgeOutLeft" to="edgeInRight" />
    <trip id="137" depart="137.00" type="car" from="edgeOutLeft" to="edgeInTop" />
    <trip id="138" depart="138.00" type="car" from="edgeOutBottom" to="edgeInLeft" />
    <trip id="139" depart="139.00" type="bike" from="edgeOutLeft" to="edgeInTop" />
    <trip id="140" depart="140.00" type="bike" from="edgeOutLeft" to="edgeInRight" />
    <trip id="141" depart="141.00" type="car" from="edgeOutRight" to="edgeInTop" />
    <trip id="142" depart="142.00" type="bus" from="edgeOutLeft" to="edgeInBottom" />
    <trip id="143" depart="143.00" type="car" from="edgeOutLeft" to="edgeInTop" />
    <trip id="144" depart="144.00" type="car" from="edgeOutTop" to="edgeInLeft" />
    <trip id="145" depart="145.00" type="bus" from="edgeOutTop" to="edgeInLeft" />
    <trip id="146" depart="146.00" type="bike" from="edgeOutBottom" to="edgeInLeft" />
    <trip id="147" depart="147.00" type="bike" from="edgeOutTop" to="edgeInBottom" />
    <trip id="148" depart="148.00" type="car" from="edgeOutLeft" to="edgeInTop" />
    <trip id="149" depart="149.00" type="car" from="edgeOutRight" to="edgeInBottom" />
    <trip id="150" depart="150.00" type="bus" from="edgeOutLeft" to="edgeInRight" />
    <trip id="151" depart="151.00" type="bike" from="edgeOutBottom" to="edgeInRight" />
    <trip id="152" depart="152.00" type="car" from="edgeOutTop" to="edgeInRight" />
    <trip id="153" depart="153.00" type="bike" from="edgeOutBottom" to="edgeInLeft" />
    <trip id="154" depart="154.00" type="bus" from="edgeOutTop" to="edgeInRight" />
    <trip id="155" depart="155.00" type="car" from="edgeOutLeft" to="edgeInTop" />
    <trip id="156" depart="156.00" type="bike" from="edgeOutBottom" to="edgeInRight" />
    <trip id="157" depart="157.00" type="bike" from="edgeOutLeft" to="edgeInBottom" />
    <trip id="158" depart="158.00" type="bus" from="edgeOutTop" to="edgeInLeft" />
    <trip id="159" depart="159.00" type="car" from="edgeOutBottom" to="edgeInTop" />
    <trip id="160" depart="160.00" type="car" from="edgeOutLeft" to="edgeInRight" />
    <trip id="161" depart="161.00" type="bike" from="edgeOutRight" to="edgeInTop" />
    <trip id="162" depart="162.00" type="bike" from="edgeOutBottom" to="edgeInRight" />
    <trip id="163" depart="163.00" type="bus" from="edgeOutLeft" to="edgeInTop" />
    <trip id="164" depart="164.00" type="car" from="edgeOutBottom" to="edgeInTop" />
    <trip id="165" depart="165.00" type="bus" from="edgeOutRight" to="edgeInBottom" />
    <trip id="166" depart="166.00" type="bus" from="edgeOutRight" to="edgeInTop" />
    <trip id="167" depart="167.00" type="bus" from="edgeOutLeft" to="edgeInBottom" />
    <trip id="168" depart="168.00" type="car" from="edgeOutRight" to="edgeInTop" />
    <trip id="169" depart="169.00" type="car" from="edgeOutRight" to="edgeInBottom" />
    <trip id="170" depart="170.00" type="car" from="edgeOutLeft" to="edgeInRight" />
    <trip id="171" depart="171.00" type="bike" from="edgeOutTop" to="edgeInRight" />
    <trip id="172" depart="172.00" type="car" from="edgeOutBottom" to="edgeInRight" />
    <trip id="173" depart="173.00" type="car" from="edgeOutLeft" to="edgeInRight" />
    <trip id="174" depart="174.00" type="bike" from="edgeOutBottom" to="edgeInRight" />
    <trip id="175" depart="175.00" type="bike" from="edgeOutLeft" to="edgeInBottom" />
    <trip id="176" depart="176.00" type="car" from="edgeOutRight" to="edgeInBottom" />
    <trip id="177" depart="177.00" type="car" from="edgeOutBottom" to="edgeInLeft" />
    <trip id="178" depart="178.00" type="bike" from="edgeOutTop" to="edgeInRight" />
    <trip id="179" depart="179.00" type="bus" from="edgeOutRight" to="edgeInBottom" />
    <trip id="180" depart="180.00" type="bike" from="edgeOutBottom" to="edgeInLeft" />
    <trip id="181" depart="181.00" type="bus" from="edgeOutTop" to="edgeInBottom" />
    <trip id="182" depart="182.00" type="bike" from="edgeOutLeft" to="edgeInRight" />
    <trip id="183" depart="183.00" type="car" from="edgeOutLeft" to="edgeInRight" />
    <trip id="184" depart="184.00" type="bus" from="edgeOutRight" to="edgeInLeft" />
    <trip id="185" depart="185.00" type="bike" from="edgeOutLeft" to="edgeInBottom" />
    <trip id="186" depart="186.00" type="bus" from="edgeOutRight" to="edgeInTop" />
    <trip id="187" depart="187.00" type="bike" from="edgeOutTop" to="edgeInRight" />
    <trip id="188" depart="188.00" type="car" from="edgeOutRight" to="edgeInTop" />
    <trip id="189" depart="189.00" type="bike" from="edgeOutBottom" to="edgeInTop" />
    <trip id="190" depart="190.00" type="bike" from="edgeOutRight" to="edgeInLeft" />
    <trip id="191" depart="191.00" type="bus" from="edgeOutBottom" to="edgeInTop" />
    <trip id="192" depart="192.00" type="car" from="edgeOutTop" to="edgeInBottom" />
    <trip id="193" depart="193.00" type="bike" from="edgeOutRight" to="edgeInBottom" />
    <trip id="194" depart="194.00" type="bus" from="edgeOutRight" to="edgeInTop" />
    <trip id="195" depart="195.00" type="bus" from="edgeOutBottom" to="edgeInLeft" />
    <trip id="196" depart="196.00" type="bike" from="edgeOutBottom" to="edgeInRight" />
    <trip id="197" depart="197.00" type="bike" from="edgeOutRight" to="edgeInLeft" />
    <trip id="198" depart="198.00" type="bike" from="edgeOutBottom" to="edgeInRight" />
    <trip id="199" depart="199.00" type="car" from="edgeOutBottom" to="edgeInTop" />
    <trip id="200" depart="200.00" type="bike" from="edgeOutBottom" to="edgeInTop" />
    <trip id="201" depart="201.00" type="car" from="edgeOutTop" to="edgeInRight" />
    <trip id="202" depart="202.00" type="bike" from="edgeOutBottom" to="edgeInTop" />
    <trip id="203" depart="203.00" type="car" from="edgeOutBottom" to="edgeInLeft" />
    <trip id="204" depart="204.00" type="car" from="edgeOutRight" to="edgeInBottom" />
    <trip id="205" depart="205.00" type="bike" from="edgeOutRight" to="edgeInTop" />
    <trip id="206" depart="206.00" type="bus" from="edgeOutTop" to="edgeInLeft" />
    <trip id="207" depart="207.00" type="bike" from="edgeOutTop" to="edgeInRight" />
    <trip id="208" depart="208.00" type="bike" from="edgeOutBottom" to="edgeInTop" />
    <trip id="209" depart="209.00" type="bus" from="edgeOutBottom" to="edgeInRight" />
    <trip id="210" depart="210.00" type="bike" from="edgeOutTop" to="edgeInLeft" />
    <trip id="211" depart="211.00" type="bike" from="edgeOutRight" to="edgeInLeft" />
    <trip id="212" depart="212.00" type="bike" from="edgeOutBottom" to="edgeInRight" />
    <trip id="213" depart="213.00" type="bus" from="edgeOutTop" to="edgeInLeft" />
    <trip id="214" depart="214.00" type="bus" from="edgeOutLeft" to="edgeInBottom" />
    <trip id="215" depart="215.00" type="bus" from="edgeOutBottom" to="edgeInRight" />
    <trip id="216" depart="216.00" type="bus" from="edgeOutRight" to="edgeInTop" />
    <trip id="217" depart="217.00" type="bus" from="edgeOutRight" to="edgeInLeft" />
    <trip id="218" depart="218.00" type="bus" from="edgeOutBottom" to="edgeInRight" />
    <trip id="219" depart="219.00" type="bike" from="edgeOutTop" to="edgeInLeft" />
    <trip id="220" depart="220.00" type="bike" from="edgeOutTop" to="edgeInRight" />
    <trip id="221" depart="221.00" type="bike" from="edgeOutRight" to="edgeInLeft" />
    <trip id="222" depart="222.00" type="bus" from="edgeOutRight" to="edgeInBottom" />
    <trip id="223" depart="223.00" type="bus" from="edgeOutBottom" to="edgeInTop" />
    <trip id="224" depart="224.00" type="bike" from="edgeOutBottom" to="edgeInLeft" />
    <trip id="225" depart="225.00" type="bus" from="edgeOutBottom" to="edgeInTop" />
    <trip id="226" depart="226.00" type="car" from="edgeOutLeft" to="edgeInRight" />
    <trip id="227" depart="227.00" type="car" from="edgeOutBottom" to="edgeInTop" />
    <trip id="228" depart="228.00" type="bus" from="edgeOutBottom" to="edgeInLeft" />
    <trip id="229" depart="229.00" type="bus" from="edgeOutTop" to="edgeInLeft" />
    <trip id="230" depart="230.00" type="bike" from="edgeOutTop" to="edgeInLeft" />
    <trip id="231" depart="231.00" type="bike" from="edgeOutLeft" to="edgeInRight" />
    <trip id="232" depart="232.00" type="bus" from="edgeOutLeft" to="edgeInTop" />
    <trip id="233" depart="233.00" type="car" from="edgeOutBottom" to="edgeInLeft" />
    <trip id="234" depart="234.00" type="car" from="edgeOutTop" to="edgeInRight" />
    <trip id="235" depart="235.00" type="bike" from="edgeOutLeft" to="edgeInBottom" />
    <trip id="236" depart="236.00" type="bus" from="edgeOutBottom" to="edgeInRight" />
    <trip id="237" depart="237.00" type="bus" from="edgeOutTop" to="edgeInRight" />
    <trip id="238" depart="238.00" type="car" from="edgeOutRight" to="edgeInLeft" />
    <trip id="239" depart="239.00" type="bike" from="edgeOutBottom" to="edgeInLeft" />
    <trip id="240" depart="240.00" type="bus" from="edgeOutRight" to="edgeInLeft" />
    <trip id="241" depart="241.00" type="bike" from="edgeOutRight" to="edgeInTop" />
    <trip id="242" depart="242.00" type="car" from="edgeOutBottom" to="edgeInLeft" />
    <trip id="243" depart="243.00" type="bike" from="edgeOutLeft" to="edgeInRight" />
    <trip id="244" depart="244.00" type="bus" from="edgeOutBottom" to="edgeInLeft" />
    <trip id="245" depart="245.00" type="bus" from="edgeOutLeft" to="edgeInBottom" />
    <trip id="246" depart="246.00" type="bus" from="edgeOutLeft" to="edgeInTop" />
    <trip id="247" depart="247.00" type="bike" from="edgeOutBottom" to="edgeInLeft" />
    <trip id="248" depart="248.00" type="bus" from="edgeOutRight" to="edgeInTop" />
    <trip id="249" depart="249.00" type="car" from="edgeOutLeft" to="edgeInRight" />
    <trip id="250" depart="250.00" type="bus" from="edgeOutTop" to="edgeInRight" />
    <trip id="251" depart="251.00" type="car" from="edgeOutTop" to="edgeInRight" />
    <trip id="252" depart="252.00" type="bus" from="edgeOutLeft" to="edgeInBottom" />
    <trip id="253" depart="253.00" type="car" from="edgeOutTop" to="edgeInLeft" />
    <trip id="254" depart="254.00" type="bus" from="edgeOutTop" to="edgeInLeft" />
    <trip id="255" depart="255.00" type="bus" from="edgeOutTop" to="edgeInLeft" />
    <trip id="256" depart="256.00" type="car" from="edgeOutTop" to="edgeInLeft" />
    <trip id="257" depart="257.00" type="bike" from="edgeOutRight" to="edgeInLeft" />
    <trip id="258" depart="258.00" type="bike" from="edgeOutTop" to="edgeInLeft" />
    <trip id="259" depart="259.00" type="bike" from="edgeOutTop" to="edgeInBottom" />
    <trip id="260" depart="260.00" type="bus" from="edgeOutLeft" to="edgeInTop" />
    <trip id="261" depart="261.00" type="bus" from="edgeOutRight" to="edgeInBottom" />
    <trip id="262" depart="262.00" type="bike" from="edgeOutBottom" to="edgeInRight" />
    <trip id="263" depart="263.00" type="bus" from="edgeOutRight" to="edgeInLeft" />
    <trip id="264" depart="264.00" type="car" from="edgeOutTop" to="edgeInLeft" />
    <trip id="265" depart="265.00" type="bus" from="edgeOutBottom" to="edgeInTop" />
    <trip id="266" depart="266.00" type="bike" from="edgeOutRight" to="edgeInLeft" />
    <trip id="267" depart="267.00" type="bike" from="edgeOutRight" to="edgeInTop" />
    <trip id="268" depart="268.00" type="car" from="edgeOutRight" to="edgeInTop" />
    <trip id="269" depart="269.00" type="bike" from="edgeOutLeft" to="edgeInBottom" />
    <trip id="270" depart="270.00" type="bus" from="edgeOutLeft" to="edgeInRight" />
    <trip id="271" depart="271.00" type="car" from="edgeOutRight" to="edgeInBottom" />
    <trip id="272" depart="272.00" type="bike" from="edgeOutRight" to="edgeInLeft" />
    <trip id="273" depart="273.00" type="bus" from="edgeOutTop" to="edgeInRight" />
    <trip id="274" depart="274.00" type="bus" from="edgeOutRight" to="edgeInBottom" />
    <trip id="275" depart="275.00" type="bus" from="edgeOutTop" to="edgeInBottom" />
    <trip id="276" depart="276.00" type="bus" from="edgeOutBottom" to="edgeInTop" />
    <trip id="277" depart="277.00" type="bike" from="edgeOutBottom" to="edgeInRight" />
    <trip id="278" depart="278.00" type="bus" from="edgeOutBottom" to="edgeInRight" />
    <trip id="279" depart="279.00" type="bike" from="edgeOutRight" to="edgeInTop" />
    <trip id="280" depart="280.00" type="bike" from="edgeOutLeft" to="edgeInTop" />
    <trip id="281" depart="281.00" type="bike" from="edgeOutBottom" to="edgeInRight" />
    <trip id="282" depart="282.00" type="car" from="edgeOutTop" to="edgeInRight" />
    <trip id="283" depart="283.00" type="bike" from="edgeOutLeft" to="edgeInBottom" />
    <trip id="284" depart="284.00" type="bus" from="edgeOutTop" to="edgeInLeft" />
    <trip id="285" depart="285.00" type="bus" from="edgeOutTop" to="edgeInBottom" />
    <trip id="286" depart="286.00" type="bike" from="edgeOutBottom" to="edgeInTop" />
    <trip id="287" depart="287.00" type="bus" from="edgeOutBottom" to="edgeInRight" />
    <trip id="288" depart="288.00" type="bus" from="edgeOutRight" to="edgeInBottom" />
    <trip id="289" depart="289.00" type="car" from="edgeOutTop" to="edgeInRight" />
    <trip id="290" depart="290.00" type="bike" from="edgeOutLeft" to="edgeInRight" />
    <trip id="291" depart="291.00" type="car" from="edgeOutTop" to="edgeInBottom" />
    <trip id="292" depart="292.00" type="bike" from="edgeOutRight" to="edgeInTop" />
    <trip id="293" depart="293.00" type="bike" from="edgeOutTop" to="edgeInLeft" />
    <trip id="294" depart="294.00" type="bike" from="edgeOutBottom" to="edgeInRight" />
    <trip id="295" depart="295.00" type="bike" from="edgeOutTop" to="edgeInLeft" />
    <trip id="296" depart="296.00" type="car" from="edgeOutTop" to="edgeInBottom" />
    <trip id="297" depart="297.00" type="bus" from="edgeOutTop" to="edgeInLeft" />
    <trip id="298" depart="298.00" type="bike" from="edgeOutBottom" to="edgeInLeft" />
    <trip id="299" depart="299.00" type="car" from="edgeOutRight" to="edgeInLeft" />
    <trip id="300" depart="300.00" type="bus" from="edgeOutRight" to="edgeInBottom" />
    <trip id="301" depart="301.00" type="bike" from="edgeOutBottom" to="edgeInTop" />
    <trip id="302" depart="302.00" type="bike" from="edgeOutBottom" to="edgeInLeft" />
    <trip id="303" depart="303.00" type="bus" from="edgeOutLeft" to="edgeInTop" />
    <trip id="304" depart="304.00" type="car" from="edgeOutRight" to="edgeInTop" />
    <trip id="305" depart="305.00" type="bus" from="edgeOutTop" to="edgeInLeft" />
    <trip id="306" depart="306.00" type="bike" from="edgeOutBottom" to="edgeInTop" />
    <trip id="307" depart="307.00" type="bike" from="edgeOutRight" to="edgeInLeft" />
    <trip id="308" depart="308.00" type="car" from="edgeOutLeft" to="edgeInBottom" />
    <trip id="309" depart="309.00" type="bike" from="edgeOutLeft" to="edgeInRight" />
    <trip id="310" depart="310.00" type="bike" from="edgeOutBottom" to="edgeInRight" />
    <trip id="311" depart="311.00" type="bus" from="edgeOutTop" to="edgeInRight" />
    <trip id="312" depart="312.00" type="bus" from="edgeOutBottom" to="edgeInRight" />
    <trip id="313" depart="313.00" type="car" from="edgeOutRight" to="edgeInBottom" />
    <trip id="314" depart="314.00" type="bike" from="edgeOutBottom" to="edgeInTop" />
    <trip id="315" depart="315.00" type="car" from="edgeOutTop" to="edgeInBottom" />
    <trip id="316" depart="316.00" type="bike" from="edgeOutBottom" to="edgeInLeft" />
    <trip id="317" depart="317.00" type="bus" from="edgeOutTop" to="edgeInRight" />
    <trip id="318" depart="318.00" type="car" from="edgeOutRight" to="edgeInTop" />
    <trip id="319" depart="319.00" type="bike" from="edgeOutTop" to="edgeInBottom" />
    <trip id="320" depart="320.00" type="bike" from="edgeOutTop" to="edgeInLeft" />
    <trip id="321" depart="321.00" type="bike" from="edgeOutBottom" to="edgeInTop" />
    <trip id="322" depart="322.00" type="bike" from="edgeOutTop" to="edgeInLeft" />
    <trip id="323" depart="323.00" type="bike" from="edgeOutBottom" to="edgeInTop" />
    <trip id="324" depart="324.00" type="bike" from="edgeOutRight" to="edgeInBottom" />
    <trip id="325" depart="325.00" type="bus" from="edgeOutBottom" to="edgeInTop" />
    <trip id="326" depart="326.00" type="car" from="edgeOutBottom" to="edgeInTop" />
    <trip id="327" depart="327.00" type="car" from="edgeOutBottom" to="edgeInRight" />
    <trip id="328" depart="328.00" type="bike" from="edgeOutTop" to="edgeInLeft" />
    <trip id="329" depart="329.00" type="car" from="edgeOutBottom" to="edgeInRight" />
    <trip id="330" depart="330.00" type="car" from="edgeOutBottom" to="edgeInLeft" />
    <trip id="331" depart="331.00" type="bus" from="edgeOutLeft" to="edgeInTop" />
    <trip id="332" depart="332.00" type="car" from="edgeOutLeft" to="edgeInTop" />
    <trip id="333" depart="333.00" type="car" from="edgeOutLeft" to="edgeInBottom" />
    <trip id="334" depart="334.00" type="bus" from="edgeOutBottom" to="edgeInTop" />
    <trip id="335" depart="335.00" type="bike" from="edgeOutTop" to="edgeInRight" />
    <trip id="336" depart="336.00" type="bike" from="edgeOutLeft" to="edgeInRight" />
    <trip id="337" depart="337.00" type="bus" from="edgeOutBottom" to="edgeInRight" />
    <trip id="338" depart="338.00" type="bike" from="edgeOutTop" to="edgeInBottom" />
    <trip id="339" depart="339.00" type="car" from="edgeOutTop" to="edgeInBottom" />
    <trip id="340" depart="340.00" type="car" from="edgeOutTop" to="edgeInBottom" />
    <trip id="341" depart="341.00" type="bus" from="edgeOutTop" to="edgeInLeft" />
    <trip id="342" depart="342.00" type="bike" from="edgeOutTop" to="edgeInBottom" />
    <trip id="343" depart="343.00" type="bus" from="edgeOutTop" to="edgeInBottom" />
    <trip id="344" depart="344.00" type="bus" from="edgeOutLeft" to="edgeInBottom" />
    <trip id="345" depart="345.00" type="bike" from="edgeOutBottom" to="edgeInTop" />
    <trip id="346" depart="346.00" type="bus" from="edgeOutLeft" to="edgeInBottom" />
    <trip id="347" depart="347.00" type="car" from="edgeOutTop" to="edgeInLeft" />