<?xml version="1.0" encoding="UTF-8"?>

<!-- generated on 2024-02-09 22:02:00 by Eclipse SUMO netconvert Version 1.19.0
<configuration xmlns:xsi="http://www.w3.org/2001/XMLSchema-instance" xsi:noNamespaceSchemaLocation="http://sumo.dlr.de/xsd/netconvertConfiguration.xsd">

    <input>
        <node-files value="nodes.nod.xml"/>
        <edge-files value="edge.edg.xml"/>
    </input>

    <output>
        <output-file value="network.net.xml"/>
    </output>

    <processing>
        <lefthand value="true"/>
    </processing>

</configuration>
-->

<net version="1.16" junctionCornerDetail="5" lefthand="true" limitTurnSpeed="5.50" xmlns:xsi="http://www.w3.org/2001/XMLSchema-instance" xsi:noNamespaceSchemaLocation="http://sumo.dlr.de/xsd/net_file.xsd">

    <location netOffset="50.00,50.00" convBoundary="0.00,-0.00,100.00,100.00" origBoundary="-50.00,-50.00,50.00,50.00" projParameter="!"/>

    <edge id=":nodeBottom_0" function="internal">
        <lane id=":nodeBottom_0_0" index="0" speed="3.65" length="4.67" shape="51.60,-0.00 50.80,-1.20 50.00,-1.60 49.20,-1.20 48.40,-0.00"/>
    </edge>
    <edge id=":nodeCenter_0" function="internal">
        <lane id=":nodeCenter_0_0" index="0" speed="6.51" length="9.03" shape="48.40,42.80 48.05,45.25 47.00,47.00 45.25,48.05 42.80,48.40"/>
    </edge>
    <edge id=":nodeCenter_1" function="internal">
        <lane id=":nodeCenter_1_0" index="0" speed="13.89" length="14.40" shape="48.40,42.80 48.40,57.20"/>
    </edge>
    <edge id=":nodeCenter_2" function="internal">
        <lane id=":nodeCenter_2_0" index="0" speed="8.00" length="4.07" shape="48.40,42.80 48.95,46.65 49.04,46.80"/>
    </edge>
    <edge id=":nodeCenter_3" function="internal">
        <lane id=":nodeCenter_3_0" index="0" speed="3.65" length="1.44" shape="48.40,42.80 49.20,44.00"/>
    </edge>
    <edge id=":nodeCenter_16" function="internal">
        <lane id=":nodeCenter_16_0" index="0" speed="8.00" length="10.13" shape="49.04,46.80 50.60,49.40 53.35,51.05 57.20,51.60"/>
    </edge>
    <edge id=":nodeCenter_17" function="internal">
        <lane id=":nodeCenter_17_0" index="0" speed="3.65" length="3.23" shape="49.20,44.00 50.00,44.40 50.80,44.00 51.60,42.80"/>
    </edge>
    <edge id=":nodeCenter_4" function="internal">
        <lane id=":nodeCenter_4_0" index="0" speed="6.51" length="9.03" shape="57.20,48.40 54.75,48.05 53.00,47.00 51.95,45.25 51.60,42.80"/>
    </edge>
    <edge id=":nodeCenter_5" function="internal">
        <lane id=":nodeCenter_5_0" index="0" speed="13.89" length="14.40" shape="57.20,48.40 42.80,48.40"/>
    </edge>
    <edge id=":nodeCenter_6" function="internal">
        <lane id=":nodeCenter_6_0" index="0" speed="8.00" length="4.07" shape="57.20,48.40 53.35,48.95 53.20,49.04"/>
    </edge>
    <edge id=":nodeCenter_7" function="internal">
        <lane id=":nodeCenter_7_0" index="0" speed="3.65" length="1.44" shape="57.20,48.40 56.00,49.20"/>
    </edge>
    <edge id=":nodeCenter_18" function="internal">
        <lane id=":nodeCenter_18_0" index="0" speed="8.00" length="10.13" shape="53.20,49.04 50.60,50.60 48.95,53.35 48.40,57.20"/>
    </edge>
    <edge id=":nodeCenter_19" function="internal">
        <lane id=":nodeCenter_19_0" index="0" speed="3.65" length="3.23" shape="56.00,49.20 55.60,50.00 56.00,50.80 57.20,51.60"/>
    </edge>
    <edge id=":nodeCenter_8" function="internal">
        <lane id=":nodeCenter_8_0" index="0" speed="6.51" length="9.03" shape="51.60,57.20 51.95,54.75 53.00,53.00 54.75,51.95 57.20,51.60"/>
    </edge>
    <edge id=":nodeCenter_9" function="internal">
        <lane id=":nodeCenter_9_0" index="0" speed="13.89" length="14.40" shape="51.60,57.20 51.60,42.80"/>
    </edge>
    <edge id=":nodeCenter_10" function="internal">
        <lane id=":nodeCenter_10_0" index="0" speed="8.00" length="4.07" shape="51.60,57.20 51.05,53.35 50.96,53.20"/>
    </edge>
    <edge id=":nodeCenter_11" function="internal">
        <lane id=":nodeCenter_11_0" index="0" speed="3.65" length="1.44" shape="51.60,57.20 50.80,56.00"/>
    </edge>
    <edge id=":nodeCenter_20" function="internal">
        <lane id=":nodeCenter_20_0" index="0" speed="8.00" length="10.13" shape="50.96,53.20 49.40,50.60 46.65,48.95 42.80,48.40"/>
    </edge>
    <edge id=":nodeCenter_21" function="internal">
        <lane id=":nodeCenter_21_0" index="0" speed="3.65" length="3.23" shape="50.80,56.00 50.00,55.60 49.20,56.00 48.40,57.20"/>
    </edge>
    <edge id=":nodeCenter_12" function="internal">
        <lane id=":nodeCenter_12_0" index="0" speed="6.51" length="9.03" shape="42.80,51.60 45.25,51.95 47.00,53.00 48.05,54.75 48.40,57.20"/>
    </edge>
    <edge id=":nodeCenter_13" function="internal">
        <lane id=":nodeCenter_13_0" index="0" speed="13.89" length="14.40" shape="42.80,51.60 57.20,51.60"/>
    </edge>
    <edge id=":nodeCenter_14" function="internal">
        <lane id=":nodeCenter_14_0" index="0" speed="8.00" length="4.07" shape="42.80,51.60 46.65,51.05 46.80,50.96"/>
    </edge>
    <edge id=":nodeCenter_15" function="internal">
        <lane id=":nodeCenter_15_0" index="0" speed="3.65" length="1.44" shape="42.80,51.60 44.00,50.80"/>
    </edge>
    <edge id=":nodeCenter_22" function="internal">
        <lane id=":nodeCenter_22_0" index="0" speed="8.00" length="10.13" shape="46.80,50.96 49.40,49.40 51.05,46.65 51.60,42.80"/>
    </edge>
    <edge id=":nodeCenter_23" function="internal">
        <lane id=":nodeCenter_23_0" index="0" speed="3.65" length="3.23" shape="44.00,50.80 44.40,50.00 44.00,49.20 42.80,48.40"/>
    </edge>
    <edge id=":nodeLeft_0" function="internal">
        <lane id=":nodeLeft_0_0" index="0" speed="3.65" length="4.67" shape="0.00,48.40 -1.20,49.20 -1.60,50.00 -1.20,50.80 0.00,51.60"/>
    </edge>
    <edge id=":nodeRight_0" function="internal">
        <lane id=":nodeRight_0_0" index="0" speed="3.65" length="4.67" shape="100.00,51.60 101.20,50.80 101.60,50.00 101.20,49.20 100.00,48.40"/>
    </edge>
    <edge id=":nodeTop_0" function="internal">
        <lane id=":nodeTop_0_0" index="0" speed="3.65" length="4.67" shape="48.40,100.00 49.20,101.20 50.00,101.60 50.80,101.20 51.60,100.00"/>
    </edge>

    <edge id="edgeInBottom" from="nodeCenter" to="nodeBottom" priority="-1">
        <lane id="edgeInBottom_0" index="0" speed="13.89" length="42.80" shape="51.60,42.80 51.60,-0.00"/>
    </edge>
    <edge id="edgeInLeft" from="nodeCenter" to="nodeLeft" priority="-1">
        <lane id="edgeInLeft_0" index="0" speed="13.89" length="42.80" shape="42.80,48.40 0.00,48.40"/>
    </edge>
    <edge id="edgeInRight" from="nodeCenter" to="nodeRight" priority="-1">
        <lane id="edgeInRight_0" index="0" speed="13.89" length="42.80" shape="57.20,51.60 100.00,51.60"/>
    </edge>
    <edge id="edgeInTop" from="nodeCenter" to="nodeTop" priority="-1">
        <lane id="edgeInTop_0" index="0" speed="13.89" length="42.80" shape="48.40,57.20 48.40,100.00"/>
    </edge>
    <edge id="edgeOutBottom" from="nodeBottom" to="nodeCenter" priority="-1">
        <lane id="edgeOutBottom_0" index="0" speed="13.89" length="42.80" shape="48.40,-0.00 48.40,42.80"/>
    </edge>
    <edge id="edgeOutLeft" from="nodeLeft" to="nodeCenter" priority="-1">
        <lane id="edgeOutLeft_0" index="0" speed="13.89" length="42.80" shape="0.00,51.60 42.80,51.60"/>
    </edge>
    <edge id="edgeOutRight" from="nodeRight" to="nodeCenter" priority="-1">
        <lane id="edgeOutRight_0" index="0" speed="13.89" length="42.80" shape="100.00,48.40 57.20,48.40"/>
    </edge>
    <edge id="edgeOutTop" from="nodeTop" to="nodeCenter" priority="-1">
        <lane id="edgeOutTop_0" index="0" speed="13.89" length="42.80" shape="51.60,100.00 51.60,57.20"/>
    </edge>

    <tlLogic id="nodeCenter" type="static" programID="0" offset="0">
        <phase duration="42" state="GGggrrrrGGggrrrr"/>
        <phase duration="3"  state="yyyyrrrryyyyrrrr"/>
        <phase duration="42" state="rrrrGGggrrrrGGgg"/>
        <phase duration="3"  state="rrrryyyyrrrryyyy"/>
    </tlLogic>

    <junction id="nodeBottom" type="priority" x="50.00" y="-0.00" incLanes="edgeInBottom_0" intLanes=":nodeBottom_0_0" shape="50.00,-0.00 53.20,-0.00 50.00,-0.00">
        <request index="0" response="0" foes="0" cont="0"/>
    </junction>
    <junction id="nodeCenter" type="traffic_light" x="50.00" y="50.00" incLanes="edgeOutBottom_0 edgeOutRight_0 edgeOutTop_0 edgeOutLeft_0" intLanes=":nodeCenter_0_0 :nodeCenter_1_0 :nodeCenter_16_0 :nodeCenter_17_0 :nodeCenter_4_0 :nodeCenter_5_0 :nodeCenter_18_0 :nodeCenter_19_0 :nodeCenter_8_0 :nodeCenter_9_0 :nodeCenter_20_0 :nodeCenter_21_0 :nodeCenter_12_0 :nodeCenter_13_0 :nodeCenter_22_0 :nodeCenter_23_0" shape="46.80,42.80 53.20,42.80 53.64,45.02 54.20,45.80 54.98,46.36 55.98,46.69 57.20,46.80 57.20,53.20 54.98,53.64 54.20,54.20 53.64,54.98 53.31,55.98 53.20,57.20 46.80,57.20 46.36,54.98 45.80,54.20 45.02,53.64 44.02,53.31 42.80,53.20 42.80,46.80 45.02,46.36 45.80,45.80 46.36,45.02 46.69,44.02">
        <request index="0"  response="0000000000000000" foes="1000010000100000" cont="0"/>
        <request index="1"  response="0100000001000000" foes="0111110001100000" cont="0"/>
        <request index="2"  response="0100011101000000" foes="0110011111100000" cont="1"/>
        <request index="3"  response="0100001000010000" foes="0100001000010000" cont="1"/>
        <request index="4"  response="0000001000000000" foes="0100001000001000" cont="0"/>
        <request index="5"  response="0000011000000111" foes="1100011000000111" cont="0"/>
        <request index="6"  response="0011011000000110" foes="0111111000000110" cont="1"/>
        <request index="7"  response="0010000100000100" foes="0010000100000100" cont="1"/>
        <request index="8"  response="0000000000000000" foes="0010000010000100" cont="0"/>
        <request index="9"  response="0100000001000000" foes="0110000001111100" cont="0"/>
        <request index="10" response="0100000001000011" foes="1110000001100111" cont="1"/>
        <request index="11" response="0001000001000010" foes="0001000001000010" cont="1"/>
        <request index="12" response="0000000000000010" foes="0000100001000010" cont="0"/>
        <request index="13" response="0000011100000110" foes="0000011111000110" cont="0"/>
        <request index="14" response="0000011001110110" foes="0000011001111110" cont="1"/>
        <request index="15" response="0000010000100001" foes="0000010000100001" cont="1"/>
    </junction>
    <junction id="nodeLeft" type="priority" x="0.00" y="50.00" incLanes="edgeInLeft_0" intLanes=":nodeLeft_0_0" shape="0.00,50.00 0.00,46.80 0.00,50.00">
        <request index="0" response="0" foes="0" cont="0"/>
    </junction>
    <junction id="nodeRight" type="priority" x="100.00" y="50.00" incLanes="edgeInRight_0" intLanes=":nodeRight_0_0" shape="100.00,50.00 100.00,53.20 100.00,50.00">
        <request index="0" response="0" foes="0" cont="0"/>
    </junction>
    <junction id="nodeTop" type="priority" x="50.00" y="100.00" incLanes="edgeInTop_0" intLanes=":nodeTop_0_0" shape="50.00,100.00 46.80,100.00 50.00,100.00">
        <request index="0" response="0" foes="0" cont="0"/>
    </junction>

    <junction id=":nodeCenter_16_0" type="internal" x="49.04" y="46.80" incLanes=":nodeCenter_2_0 edgeOutTop_0" intLanes=":nodeCenter_5_0 :nodeCenter_6_0 :nodeCenter_7_0 :nodeCenter_8_0 :nodeCenter_9_0 :nodeCenter_13_0 :nodeCenter_14_0"/>
    <junction id=":nodeCenter_17_0" type="internal" x="49.20" y="44.00" incLanes=":nodeCenter_3_0 edgeOutLeft_0 edgeOutRight_0 edgeOutTop_0" intLanes=":nodeCenter_4_0 :nodeCenter_9_0 :nodeCenter_14_0"/>
    <junction id=":nodeCenter_18_0" type="internal" x="53.20" y="49.04" incLanes=":nodeCenter_6_0 edgeOutLeft_0" intLanes=":nodeCenter_1_0 :nodeCenter_2_0 :nodeCenter_9_0 :nodeCenter_10_0 :nodeCenter_11_0 :nodeCenter_12_0 :nodeCenter_13_0"/>
    <junction id=":nodeCenter_19_0" type="internal" x="56.00" y="49.20" incLanes=":nodeCenter_7_0 edgeOutBottom_0 edgeOutLeft_0 edgeOutTop_0" intLanes=":nodeCenter_2_0 :nodeCenter_8_0 :nodeCenter_13_0"/>
    <junction id=":nodeCenter_20_0" type="internal" x="50.96" y="53.20" incLanes=":nodeCenter_10_0 edgeOutBottom_0" intLanes=":nodeCenter_0_0 :nodeCenter_1_0 :nodeCenter_5_0 :nodeCenter_6_0 :nodeCenter_13_0 :nodeCenter_14_0 :nodeCenter_15_0"/>
    <junction id=":nodeCenter_21_0" type="internal" x="50.80" y="56.00" incLanes=":nodeCenter_11_0 edgeOutBottom_0 edgeOutLeft_0 edgeOutRight_0" intLanes=":nodeCenter_1_0 :nodeCenter_6_0 :nodeCenter_12_0"/>
    <junction id=":nodeCenter_22_0" type="internal" x="46.80" y="50.96" incLanes=":nodeCenter_14_0 edgeOutRight_0" intLanes=":nodeCenter_1_0 :nodeCenter_2_0 :nodeCenter_3_0 :nodeCenter_4_0 :nodeCenter_5_0 :nodeCenter_9_0 :nodeCenter_10_0"/>
    <junction id=":nodeCenter_23_0" type="internal" x="44.00" y="50.80" incLanes=":nodeCenter_15_0 edgeOutBottom_0 edgeOutRight_0 edgeOutTop_0" intLanes=":nodeCenter_0_0 :nodeCenter_5_0 :nodeCenter_10_0"/>

    <connection from="edgeInBottom" to="edgeOutBottom" fromLane="0" toLane="0" via=":nodeBottom_0_0" dir="T" state="M"/>
    <connection from="edgeInLeft" to="edgeOutLeft" fromLane="0" toLane="0" via=":nodeLeft_0_0" dir="T" state="M"/>
    <connection from="edgeInRight" to="edgeOutRight" fromLane="0" toLane="0" via=":nodeRight_0_0" dir="T" state="M"/>
    <connection from="edgeInTop" to="edgeOutTop" fromLane="0" toLane="0" via=":nodeTop_0_0" dir="T" state="M"/>
    <connection from="edgeOutBottom" to="edgeInLeft" fromLane="0" toLane="0" via=":nodeCenter_0_0" tl="nodeCenter" linkIndex="0" dir="l" state="O"/>
    <connection from="edgeOutBottom" to="edgeInTop" fromLane="0" toLane="0" via=":nodeCenter_1_0" tl="nodeCenter" linkIndex="1" dir="s" state="O"/>
    <connection from="edgeOutBottom" to="edgeInRight" fromLane="0" toLane="0" via=":nodeCenter_2_0" tl="nodeCenter" linkIndex="2" dir="r" state="o"/>
    <connection from="edgeOutBottom" to="edgeInBottom" fromLane="0" toLane="0" via=":nodeCenter_3_0" tl="nodeCenter" linkIndex="3" dir="T" state="o"/>
    <connection from="edgeOutLeft" to="edgeInTop" fromLane="0" toLane="0" via=":nodeCenter_12_0" tl="nodeCenter" linkIndex="12" dir="l" state="o"/>
    <connection from="edgeOutLeft" to="edgeInRight" fromLane="0" toLane="0" via=":nodeCenter_13_0" tl="nodeCenter" linkIndex="13" dir="s" state="o"/>
    <connection from="edgeOutLeft" to="edgeInBottom" fromLane="0" toLane="0" via=":nodeCenter_14_0" tl="nodeCenter" linkIndex="14" dir="r" state="o"/>
    <connection from="edgeOutLeft" to="edgeInLeft" fromLane="0" toLane="0" via=":nodeCenter_15_0" tl="nodeCenter" linkIndex="15" dir="T" state="o"/>
    <connection from="edgeOutRight" to="edgeInBottom" fromLane="0" toLane="0" via=":nodeCenter_4_0" tl="nodeCenter" linkIndex="4" dir="l" state="o"/>
    <connection from="edgeOutRight" to="edgeInLeft" fromLane="0" toLane="0" via=":nodeCenter_5_0" tl="nodeCenter" linkIndex="5" dir="s" state="o"/>
    <connection from="edgeOutRight" to="edgeInTop" fromLane="0" toLane="0" via=":nodeCenter_6_0" tl="nodeCenter" linkIndex="6" dir="r" state="o"/>
    <connection from="edgeOutRight" to="edgeInRight" fromLane="0" toLane="0" via=":nodeCenter_7_0" tl="nodeCenter" linkIndex="7" dir="T" state="o"/>
    <connection from="edgeOutTop" to="edgeInRight" fromLane="0" toLane="0" via=":nodeCenter_8_0" tl="nodeCenter" linkIndex="8" dir="l" state="O"/>
    <connection from="edgeOutTop" to="edgeInBottom" fromLane="0" toLane="0" via=":nodeCenter_9_0" tl="nodeCenter" linkIndex="9" dir="s" state="O"/>
    <connection from="edgeOutTop" to="edgeInLeft" fromLane="0" toLane="0" via=":nodeCenter_10_0" tl="nodeCenter" linkIndex="10" dir="r" state="o"/>
    <connection from="edgeOutTop" to="edgeInTop" fromLane="0" toLane="0" via=":nodeCenter_11_0" tl="nodeCenter" linkIndex="11" dir="T" state="o"/>

    <connection from=":nodeBottom_0" to="edgeOutBottom" fromLane="0" toLane="0" dir="T" state="M"/>
    <connection from=":nodeCenter_0" to="edgeInLeft" fromLane="0" toLane="0" dir="l" state="M"/>
    <connection from=":nodeCenter_1" to="edgeInTop" fromLane="0" toLane="0" dir="s" state="M"/>
    <connection from=":nodeCenter_2" to="edgeInRight" fromLane="0" toLane="0" via=":nodeCenter_16_0" dir="r" state="m"/>
    <connection from=":nodeCenter_16" to="edgeInRight" fromLane="0" toLane="0" dir="r" state="M"/>
    <connection from=":nodeCenter_3" to="edgeInBottom" fromLane="0" toLane="0" via=":nodeCenter_17_0" dir="T" state="m"/>
    <connection from=":nodeCenter_17" to="edgeInBottom" fromLane="0" toLane="0" dir="T" state="M"/>
    <connection from=":nodeCenter_4" to="edgeInBottom" fromLane="0" toLane="0" dir="l" state="M"/>
    <connection from=":nodeCenter_5" to="edgeInLeft" fromLane="0" toLane="0" dir="s" state="M"/>
    <connection from=":nodeCenter_6" to="edgeInTop" fromLane="0" toLane="0" via=":nodeCenter_18_0" dir="r" state="m"/>
    <connection from=":nodeCenter_18" to="edgeInTop" fromLane="0" toLane="0" dir="r" state="M"/>
    <connection from=":nodeCenter_7" to="edgeInRight" fromLane="0" toLane="0" via=":nodeCenter_19_0" dir="T" state="m"/>
    <connection from=":nodeCenter_19" to="edgeInRight" fromLane="0" toLane="0" dir="T" state="M"/>
    <connection from=":nodeCenter_8" to="edgeInRight" fromLane="0" toLane="0" dir="l" state="M"/>
    <connection from=":nodeCenter_9" to="edgeInBottom" fromLane="0" toLane="0" dir="s" state="M"/>
    <connection from=":nodeCenter_10" to="edgeInLeft" fromLane="0" toLane="0" via=":nodeCenter_20_0" dir="r" state="m"/>
    <connection from=":nodeCenter_20" to="edgeInLeft" fromLane="0" toLane="0" dir="r" state="M"/>
    <connection from=":nodeCenter_11" to="edgeInTop" fromLane="0" toLane="0" via=":nodeCenter_21_0" dir="T" state="m"/>
    <connection from=":nodeCenter_21" to="edgeInTop" fromLane="0" toLane="0" dir="T" state="M"/>
    <connection from=":nodeCenter_12" to="edgeInTop" fromLane="0" toLane="0" dir="l" state="M"/>
    <connection from=":nodeCenter_13" to="edgeInRight" fromLane="0" toLane="0" dir="s" state="M"/>
    <connection from=":nodeCenter_14" to="edgeInBottom" fromLane="0" toLane="0" via=":nodeCenter_22_0" dir="r" state="m"/>
    <connection from=":nodeCenter_22" to="edgeInBottom" fromLane="0" toLane="0" dir="r" state="M"/>
    <connection from=":nodeCenter_15" to="edgeInLeft" fromLane="0" toLane="0" via=":nodeCenter_23_0" dir="T" state="m"/>
    <connection from=":nodeCenter_23" to="edgeInLeft" fromLane="0" toLane="0" dir="T" state="M"/>
    <connection from=":nodeLeft_0" to="edgeOutLeft" fromLane="0" toLane="0" dir="T" state="M"/>
    <connection from=":nodeRight_0" to="edgeOutRight" fromLane="0" toLane="0" dir="T" state="M"/>
    <connection from=":nodeTop_0" to="edgeOutTop" fromLane="0" toLane="0" dir="T" state="M"/>

    <additional>
        <vType id="car" type="car" guiShape="passenger"/>
        <vType id="bus" type="bus" guiShape="bus"/>
        <vType id="bike" type="bike" guiShape="motorcycle"/>
    </additional>
</net>
