<nodes>
    <node id="nodeCenter" x="0" y="0"/>
    <node id="nodeTop" x="0" y="50"/>
    <node id="nodeBottom" x="0" y="-50"/>
    <node id="nodeRight" x="50" y="0"/>
    <node id="nodeLeft" x="-50" y="0"/>
</nodes>