<?xml version="1.0" encoding="UTF-8"?>

<!-- generated on 2024-02-09 22:09:34 by Eclipse SUMO duarouter Version 1.19.0
<configuration xmlns:xsi="http://www.w3.org/2001/XMLSchema-instance" xsi:noNamespaceSchemaLocation="http://sumo.dlr.de/xsd/duarouterConfiguration.xsd">

    <input>
        <net-file value="network.net.xml"/>
        <route-files value="modified_trips.trips.xml"/>
    </input>

    <output>
        <output-file value="route.rou.xml"/>
    </output>

    <report>
        <no-warnings value="true"/>
        <ignore-errors value="true"/>
    </report>

</configuration>
-->

<routes xmlns:xsi="http://www.w3.org/2001/XMLSchema-instance" xsi:noNamespaceSchemaLocation="http://sumo.dlr.de/xsd/routes_file.xsd">
    <vehicle id="0" type="bike" depart="0.00">
        <route edges="edgeOutBottom edgeInTop"/>
    </vehicle>
    <vehicle id="1" type="bike" depart="1.00">
        <route edges="edgeOutBottom edgeInLeft"/>
    </vehicle>
    <vehicle id="2" type="car" depart="2.00">
        <route edges="edgeOutBottom edgeInRight"/>
    </vehicle>
    <vehicle id="3" type="bike" depart="3.00">
        <route edges="edgeOutRight edgeInLeft"/>
    </vehicle>
    <vehicle id="4" type="bike" depart="4.00">
        <route edges="edgeOutLeft edgeInRight"/>
    </vehicle>
    <vehicle id="5" type="bike" depart="5.00">
        <route edges="edgeOutTop edgeInBottom"/>
    </vehicle>
    <vehicle id="6" type="car" depart="6.00">
        <route edges="edgeOutLeft edgeInBottom"/>
    </vehicle>
    <vehicle id="7" type="car" depart="7.00">
        <route edges="edgeOutBottom edgeInTop"/>
    </vehicle>
    <vehicle id="8" type="bus" depart="8.00">
        <route edges="edgeOutBottom edgeInLeft"/>
    </vehicle>
    <vehicle id="9" type="bike" depart="9.00">
        <route edges="edgeOutBottom edgeInLeft"/>
    </vehicle>
    <vehicle id="10" type="bike" depart="10.00">
        <route edges="edgeOutRight edgeInTop"/>
    </vehicle>
    <vehicle id="11" type="bus" depart="11.00">
        <route edges="edgeOutTop edgeInLeft"/>
    </vehicle>
    <vehicle id="12" type="car" depart="12.00">
        <route edges="edgeOutLeft edgeInRight"/>
    </vehicle>
    <vehicle id="13" type="bike" depart="13.00">
        <route edges="edgeOutBottom edgeInLeft"/>
    </vehicle>
    <vehicle id="14" type="car" depart="14.00">
        <route edges="edgeOutLeft edgeInTop"/>
    </vehicle>
    <vehicle id="15" type="bike" depart="15.00">
        <route edges="edgeOutRight edgeInLeft"/>
    </vehicle>
    <vehicle id="16" type="bus" depart="16.00">
        <route edges="edgeOutRight edgeInBottom"/>
    </vehicle>
    <vehicle id="17" type="car" depart="17.00">
        <route edges="edgeOutLeft edgeInRight"/>
    </vehicle>
    <vehicle id="18" type="car" depart="18.00">
        <route edges="edgeOutRight edgeInLeft"/>
    </vehicle>
    <vehicle id="19" type="bus" depart="19.00">
        <route edges="edgeOutRight edgeInBottom"/>
    </vehicle>
    <vehicle id="20" type="car" depart="20.00">
        <route edges="edgeOutLeft edgeInTop"/>
    </vehicle>
    <vehicle id="21" type="bus" depart="21.00">
        <route edges="edgeOutBottom edgeInRight"/>
    </vehicle>
    <vehicle id="22" type="bus" depart="22.00">
        <route edges="edgeOutTop edgeInRight"/>
    </vehicle>
    <vehicle id="23" type="bike" depart="23.00">
        <route edges="edgeOutTop edgeInBottom"/>
    </vehicle>
    <vehicle id="24" type="car" depart="24.00">
        <route edges="edgeOutBottom edgeInLeft"/>
    </vehicle>
    <vehicle id="25" type="bus" depart="25.00">
        <route edges="edgeOutRight edgeInLeft"/>
    </vehicle>
    <vehicle id="26" type="bike" depart="26.00">
        <route edges="edgeOutTop edgeInLeft"/>
    </vehicle>
    <vehicle id="27" type="car" depart="27.00">
        <route edges="edgeOutRight edgeInTop"/>
    </vehicle>
    <vehicle id="28" type="car" depart="28.00">
        <route edges="edgeOutRight edgeInLeft"/>
    </vehicle>
    <vehicle id="29" type="car" depart="29.00">
        <route edges="edgeOutLeft edgeInTop"/>
    </vehicle>
    <vehicle id="30" type="car" depart="30.00">
        <route edges="edgeOutBottom edgeInTop"/>
    </vehicle>
    <vehicle id="31" type="bus" depart="31.00">
        <route edges="edgeOutLeft edgeInRight"/>
    </vehicle>
    <vehicle id="32" type="bike" depart="32.00">
        <route edges="edgeOutBottom edgeInRight"/>
    </vehicle>
    <vehicle id="33" type="bus" depart="33.00">
        <route edges="edgeOutRight edgeInBottom"/>
    </vehicle>
    <vehicle id="34" type="bus" depart="34.00">
        <route edges="edgeOutLeft edgeInBottom"/>
    </vehicle>
    <vehicle id="35" type="car" depart="35.00">
        <route edges="edgeOutLeft edgeInBottom"/>
    </vehicle>
    <vehicle id="36" type="car" depart="36.00">
        <route edges="edgeOutRight edgeInTop"/>
    </vehicle>
    <vehicle id="37" type="bike" depart="37.00">
        <route edges="edgeOutRight edgeInLeft"/>
    </vehicle>
    <vehicle id="38" type="bike" depart="38.00">
        <route edges="edgeOutRight edgeInLeft"/>
    </vehicle>
    <vehicle id="39" type="car" depart="39.00">
        <route edges="edgeOutRight edgeInTop"/>
    </vehicle>
    <vehicle id="40" type="car" depart="40.00">
        <route edges="edgeOutTop edgeInLeft"/>
    </vehicle>
    <vehicle id="41" type="car" depart="41.00">
        <route edges="edgeOutTop edgeInRight"/>
    </vehicle>
    <vehicle id="42" type="bus" depart="42.00">
        <route edges="edgeOutBottom edgeInTop"/>
    </vehicle>
    <vehicle id="43" type="car" depart="43.00">
        <route edges="edgeOutRight edgeInLeft"/>
    </vehicle>
    <vehicle id="44" type="bike" depart="44.00">
        <route edges="edgeOutTop edgeInLeft"/>
    </vehicle>
    <vehicle id="45" type="bike" depart="45.00">
        <route edges="edgeOutBottom edgeInTop"/>
    </vehicle>
    <vehicle id="46" type="bike" depart="46.00">
        <route edges="edgeOutLeft edgeInBottom"/>
    </vehicle>
    <vehicle id="47" type="bus" depart="47.00">
        <route edges="edgeOutBottom edgeInRight"/>
    </vehicle>
    <vehicle id="48" type="bus" depart="48.00">
        <route edges="edgeOutBottom edgeInTop"/>
    </vehicle>
    <vehicle id="49" type="car" depart="49.00">
        <route edges="edgeOutBottom edgeInTop"/>
    </vehicle>
    <vehicle id="50" type="car" depart="50.00">
        <route edges="edgeOutTop edgeInRight"/>
    </vehicle>
    <vehicle id="51" type="bus" depart="51.00">
        <route edges="edgeOutTop edgeInLeft"/>
    </vehicle>
    <vehicle id="52" type="bike" depart="52.00">
        <route edges="edgeOutLeft edgeInTop"/>
    </vehicle>
    <vehicle id="53" type="car" depart="53.00">
        <route edges="edgeOutBottom edgeInRight"/>
    </vehicle>
    <vehicle id="54" type="car" depart="54.00">
        <route edges="edgeOutLeft edgeInTop"/>
    </vehicle>
    <vehicle id="55" type="bus" depart="55.00">
        <route edges="edgeOutRight edgeInTop"/>
    </vehicle>
    <vehicle id="56" type="bus" depart="56.00">
        <route edges="edgeOutLeft edgeInBottom"/>
    </vehicle>
    <vehicle id="57" type="bike" depart="57.00">
        <route edges="edgeOutRight edgeInBottom"/>
    </vehicle>
    <vehicle id="58" type="bus" depart="58.00">
        <route edges="edgeOutRight edgeInTop"/>
    </vehicle>
    <vehicle id="59" type="car" depart="59.00">
        <route edges="edgeOutTop edgeInLeft"/>
    </vehicle>
    <vehicle id="60" type="bike" depart="60.00">
        <route edges="edgeOutBottom edgeInTop"/>
    </vehicle>
    <vehicle id="61" type="bike" depart="61.00">
        <route edges="edgeOutLeft edgeInTop"/>
    </vehicle>
    <vehicle id="62" type="car" depart="62.00">
        <route edges="edgeOutRight edgeInBottom"/>
    </vehicle>
    <vehicle id="63" type="bus" depart="63.00">
        <route edges="edgeOutTop edgeInBottom"/>
    </vehicle>
    <vehicle id="64" type="bus" depart="64.00">
        <route edges="edgeOutBottom edgeInTop"/>
    </vehicle>
    <vehicle id="65" type="car" depart="65.00">
        <route edges="edgeOutBottom edgeInLeft"/>
    </vehicle>
    <vehicle id="66" type="car" depart="66.00">
        <route edges="edgeOutRight edgeInLeft"/>
    </vehicle>
    <vehicle id="67" type="car" depart="67.00">
        <route edges="edgeOutLeft edgeInTop"/>
    </vehicle>
    <vehicle id="68" type="bike" depart="68.00">
        <route edges="edgeOutRight edgeInLeft"/>
    </vehicle>
    <vehicle id="69" type="bus" depart="69.00">
        <route edges="edgeOutLeft edgeInTop"/>
    </vehicle>
    <vehicle id="70" type="bike" depart="70.00">
        <route edges="edgeOutBottom edgeInRight"/>
    </vehicle>
    <vehicle id="71" type="bike" depart="71.00">
        <route edges="edgeOutTop edgeInLeft"/>
    </vehicle>
    <vehicle id="72" type="car" depart="72.00">
        <route edges="edgeOutBottom edgeInRight"/>
    </vehicle>
    <vehicle id="73" type="bike" depart="73.00">
        <route edges="edgeOutRight edgeInLeft"/>
    </vehicle>
    <vehicle id="74" type="car" depart="74.00">
        <route edges="edgeOutTop edgeInLeft"/>
    </vehicle>
    <vehicle id="75" type="bus" depart="75.00">
        <route edges="edgeOutBottom edgeInLeft"/>
    </vehicle>
    <vehicle id="76" type="bus" depart="76.00">
        <route edges="edgeOutBottom edgeInRight"/>
    </vehicle>
    <vehicle id="77" type="car" depart="77.00">
        <route edges="edgeOutBottom edgeInRight"/>
    </vehicle>
    <vehicle id="78" type="bus" depart="78.00">
        <route edges="edgeOutLeft edgeInBottom"/>
    </vehicle>
    <vehicle id="79" type="bus" depart="79.00">
        <route edges="edgeOutLeft edgeInRight"/>
    </vehicle>
    <vehicle id="80" type="bus" depart="80.00">
        <route edges="edgeOutRight edgeInTop"/>
    </vehicle>
    <vehicle id="81" type="car" depart="81.00">
        <route edges="edgeOutRight edgeInLeft"/>
    </vehicle>
    <vehicle id="82" type="car" depart="82.00">
        <route edges="edgeOutBottom edgeInRight"/>
    </vehicle>
    <vehicle id="83" type="bike" depart="83.00">
        <route edges="edgeOutTop edgeInLeft"/>
    </vehicle>
    <vehicle id="84" type="car" depart="84.00">
        <route edges="edgeOutBottom edgeInLeft"/>
    </vehicle>
    <vehicle id="85" type="bus" depart="85.00">
        <route edges="edgeOutRight edgeInBottom"/>
    </vehicle>
    <vehicle id="86" type="car" depart="86.00">
        <route edges="edgeOutTop edgeInRight"/>
    </vehicle>
    <vehicle id="87" type="bike" depart="87.00">
        <route edges="edgeOutLeft edgeInTop"/>
    </vehicle>
    <vehicle id="88" type="bus" depart="88.00">
        <route edges="edgeOutLeft edgeInBottom"/>
    </vehicle>
    <vehicle id="89" type="car" depart="89.00">
        <route edges="edgeOutBottom edgeInTop"/>
    </vehicle>
    <vehicle id="90" type="bike" depart="90.00">
        <route edges="edgeOutTop edgeInBottom"/>
    </vehicle>
    <vehicle id="91" type="bike" depart="91.00">
        <route edges="edgeOutTop edgeInRight"/>
    </vehicle>
    <vehicle id="92" type="bike" depart="92.00">
        <route edges="edgeOutTop edgeInBottom"/>
    </vehicle>
    <vehicle id="93" type="car" depart="93.00">
        <route edges="edgeOutLeft edgeInBottom"/>
    </vehicle>
    <vehicle id="94" type="bike" depart="94.00">
        <route edges="edgeOutRight edgeInLeft"/>
    </vehicle>
    <vehicle id="95" type="car" depart="95.00">
        <route edges="edgeOutRight edgeInBottom"/>
    </vehicle>
    <vehicle id="96" type="bus" depart="96.00">
        <route edges="edgeOutBottom edgeInTop"/>
    </vehicle>
    <vehicle id="97" type="bus" depart="97.00">
        <route edges="edgeOutBottom edgeInLeft"/>
    </vehicle>
    <vehicle id="98" type="bus" depart="98.00">
        <route edges="edgeOutLeft edgeInRight"/>
    </vehicle>
    <vehicle id="99" type="bus" depart="99.00">
        <route edges="edgeOutTop edgeInRight"/>
    </vehicle>
    <vehicle id="100" type="bike" depart="100.00">
        <route edges="edgeOutTop edgeInBottom"/>
    </vehicle>
    <vehicle id="101" type="bike" depart="101.00">
        <route edges="edgeOutLeft edgeInTop"/>
    </vehicle>
    <vehicle id="102" type="bike" depart="102.00">
        <route edges="edgeOutLeft edgeInRight"/>
    </vehicle>
    <vehicle id="103" type="car" depart="103.00">
        <route edges="edgeOutTop edgeInBottom"/>
    </vehicle>
    <vehicle id="104" type="car" depart="104.00">
        <route edges="edgeOutBottom edgeInTop"/>
    </vehicle>
    <vehicle id="105" type="bus" depart="105.00">
        <route edges="edgeOutTop edgeInRight"/>
    </vehicle>
    <vehicle id="106" type="bike" depart="106.00">
        <route edges="edgeOutTop edgeInRight"/>
    </vehicle>
    <vehicle id="107" type="bike" depart="107.00">
        <route edges="edgeOutBottom edgeInTop"/>
    </vehicle>
    <vehicle id="108" type="car" depart="108.00">
        <route edges="edgeOutTop edgeInBottom"/>
    </vehicle>
    <vehicle id="109" type="bike" depart="109.00">
        <route edges="edgeOutRight edgeInLeft"/>
    </vehicle>
    <vehicle id="110" type="bike" depart="110.00">
        <route edges="edgeOutRight edgeInTop"/>
    </vehicle>
    <vehicle id="111" type="bus" depart="111.00">
        <route edges="edgeOutLeft edgeInRight"/>
    </vehicle>
    <vehicle id="112" type="bike" depart="112.00">
        <route edges="edgeOutTop edgeInBottom"/>
    </vehicle>
    <vehicle id="113" type="bike" depart="113.00">
        <route edges="edgeOutTop edgeInBottom"/>
    </vehicle>
    <vehicle id="114" type="bike" depart="114.00">
        <route edges="edgeOutBottom edgeInLeft"/>
    </vehicle>
    <vehicle id="115" type="bus" depart="115.00">
        <route edges="edgeOutTop edgeInBottom"/>
    </vehicle>
    <vehicle id="116" type="car" depart="116.00">
        <route edges="edgeOutRight edgeInLeft"/>
    </vehicle>
    <vehicle id="117" type="bus" depart="117.00">
        <route edges="edgeOutLeft edgeInBottom"/>
    </vehicle>
    <vehicle id="118" type="bike" depart="118.00">
        <route edges="edgeOutRight edgeInLeft"/>
    </vehicle>
    <vehicle id="119" type="bus" depart="119.00">
        <route edges="edgeOutLeft edgeInTop"/>
    </vehicle>
    <vehicle id="120" type="car" depart="120.00">
        <route edges="edgeOutLeft edgeInTop"/>
    </vehicle>
    <vehicle id="121" type="bike" depart="121.00">
        <route edges="edgeOutRight edgeInBottom"/>
    </vehicle>
    <vehicle id="122" type="bike" depart="122.00">
        <route edges="edgeOutTop edgeInLeft"/>
    </vehicle>
    <vehicle id="123" type="bus" depart="123.00">
        <route edges="edgeOutBottom edgeInTop"/>
    </vehicle>
    <vehicle id="124" type="bus" depart="124.00">
        <route edges="edgeOutTop edgeInLeft"/>
    </vehicle>
    <vehicle id="125" type="bus" depart="125.00">
        <route edges="edgeOutTop edgeInBottom"/>
    </vehicle>
    <vehicle id="126" type="bus" depart="126.00">
        <route edges="edgeOutTop edgeInLeft"/>
    </vehicle>
    <vehicle id="127" type="bus" depart="127.00">
        <route edges="edgeOutLeft edgeInRight"/>
    </vehicle>
    <vehicle id="128" type="car" depart="128.00">
        <route edges="edgeOutRight edgeInLeft"/>
    </vehicle>
    <vehicle id="129" type="bike" depart="129.00">
        <route edges="edgeOutTop edgeInBottom"/>
    </vehicle>
    <vehicle id="130" type="bike" depart="130.00">
        <route edges="edgeOutTop edgeInBottom"/>
    </vehicle>
    <vehicle id="131" type="bike" depart="131.00">
        <route edges="edgeOutRight edgeInBottom"/>
    </vehicle>
    <vehicle id="132" type="bike" depart="132.00">
        <route edges="edgeOutLeft edgeInTop"/>
    </vehicle>
    <vehicle id="133" type="car" depart="133.00">
        <route edges="edgeOutTop edgeInBottom"/>
    </vehicle>
    <vehicle id="134" type="car" depart="134.00">
        <route edges="edgeOutBottom edgeInLeft"/>
    </vehicle>
    <vehicle id="135" type="bike" depart="135.00">
        <route edges="edgeOutRight edgeInLeft"/>
    </vehicle>
    <vehicle id="136" type="car" depart="136.00">
        <route edges="edgeOutLeft edgeInRight"/>
    </vehicle>
    <vehicle id="137" type="car" depart="137.00">
        <route edges="edgeOutLeft edgeInTop"/>
    </vehicle>
    <vehicle id="138" type="car" depart="138.00">
        <route edges="edgeOutBottom edgeInLeft"/>
    </vehicle>
    <vehicle id="139" type="bike" depart="139.00">
        <route edges="edgeOutLeft edgeInTop"/>
    </vehicle>
    <vehicle id="140" type="bike" depart="140.00">
        <route edges="edgeOutLeft edgeInRight"/>
    </vehicle>
    <vehicle id="141" type="car" depart="141.00">
        <route edges="edgeOutRight edgeInTop"/>
    </vehicle>
    <vehicle id="142" type="bus" depart="142.00">
        <route edges="edgeOutLeft edgeInBottom"/>
    </vehicle>
    <vehicle id="143" type="car" depart="143.00">
        <route edges="edgeOutLeft edgeInTop"/>
    </vehicle>
    <vehicle id="144" type="car" depart="144.00">
        <route edges="edgeOutTop edgeInLeft"/>
    </vehicle>
    <vehicle id="145" type="bus" depart="145.00">
        <route edges="edgeOutTop edgeInLeft"/>
    </vehicle>
    <vehicle id="146" type="bike" depart="146.00">
        <route edges="edgeOutBottom edgeInLeft"/>
    </vehicle>
    <vehicle id="147" type="bike" depart="147.00">
        <route edges="edgeOutTop edgeInBottom"/>
    </vehicle>
    <vehicle id="148" type="car" depart="148.00">
        <route edges="edgeOutLeft edgeInTop"/>
    </vehicle>
    <vehicle id="149" type="car" depart="149.00">
        <route edges="edgeOutRight edgeInBottom"/>
    </vehicle>
    <vehicle id="150" type="bus" depart="150.00">
        <route edges="edgeOutLeft edgeInRight"/>
    </vehicle>
    <vehicle id="151" type="bike" depart="151.00">
        <route edges="edgeOutBottom edgeInRight"/>
    </vehicle>
    <vehicle id="152" type="car" depart="152.00">
        <route edges="edgeOutTop edgeInRight"/>
    </vehicle>
    <vehicle id="153" type="bike" depart="153.00">
        <route edges="edgeOutBottom edgeInLeft"/>
    </vehicle>
    <vehicle id="154" type="bus" depart="154.00">
        <route edges="edgeOutTop edgeInRight"/>
    </vehicle>
    <vehicle id="155" type="car" depart="155.00">
        <route edges="edgeOutLeft edgeInTop"/>
    </vehicle>
    <vehicle id="156" type="bike" depart="156.00">
        <route edges="edgeOutBottom edgeInRight"/>
    </vehicle>
    <vehicle id="157" type="bike" depart="157.00">
        <route edges="edgeOutLeft edgeInBottom"/>
    </vehicle>
    <vehicle id="158" type="bus" depart="158.00">
        <route edges="edgeOutTop edgeInLeft"/>
    </vehicle>
    <vehicle id="159" type="car" depart="159.00">
        <route edges="edgeOutBottom edgeInTop"/>
    </vehicle>
    <vehicle id="160" type="car" depart="160.00">
        <route edges="edgeOutLeft edgeInRight"/>
    </vehicle>
    <vehicle id="161" type="bike" depart="161.00">
        <route edges="edgeOutRight edgeInTop"/>
    </vehicle>
    <vehicle id="162" type="bike" depart="162.00">
        <route edges="edgeOutBottom edgeInRight"/>
    </vehicle>
    <vehicle id="163" type="bus" depart="163.00">
        <route edges="edgeOutLeft edgeInTop"/>
    </vehicle>
    <vehicle id="164" type="car" depart="164.00">
        <route edges="edgeOutBottom edgeInTop"/>
    </vehicle>
    <vehicle id="165" type="bus" depart="165.00">
        <route edges="edgeOutRight edgeInBottom"/>
    </vehicle>
    <vehicle id="166" type="bus" depart="166.00">
        <route edges="edgeOutRight edgeInTop"/>
    </vehicle>
    <vehicle id="167" type="bus" depart="167.00">
        <route edges="edgeOutLeft edgeInBottom"/>
    </vehicle>
    <vehicle id="168" type="car" depart="168.00">
        <route edges="edgeOutRight edgeInTop"/>
    </vehicle>
    <vehicle id="169" type="car" depart="169.00">
        <route edges="edgeOutRight edgeInBottom"/>
    </vehicle>
    <vehicle id="170" type="car" depart="170.00">
        <route edges="edgeOutLeft edgeInRight"/>
    </vehicle>
    <vehicle id="171" type="bike" depart="171.00">
        <route edges="edgeOutTop edgeInRight"/>
    </vehicle>
    <vehicle id="172" type="car" depart="172.00">
        <route edges="edgeOutBottom edgeInRight"/>
    </vehicle>
    <vehicle id="173" type="car" depart="173.00">
        <route edges="edgeOutLeft edgeInRight"/>
    </vehicle>
    <vehicle id="174" type="bike" depart="174.00">
        <route edges="edgeOutBottom edgeInRight"/>
    </vehicle>
    <vehicle id="175" type="bike" depart="175.00">
        <route edges="edgeOutLeft edgeInBottom"/>
    </vehicle>
    <vehicle id="176" type="car" depart="176.00">
        <route edges="edgeOutRight edgeInBottom"/>
    </vehicle>
    <vehicle id="177" type="car" depart="177.00">
        <route edges="edgeOutBottom edgeInLeft"/>
    </vehicle>
    <vehicle id="178" type="bike" depart="178.00">
        <route edges="edgeOutTop edgeInRight"/>
    </vehicle>
    <vehicle id="179" type="bus" depart="179.00">
        <route edges="edgeOutRight edgeInBottom"/>
    </vehicle>
    <vehicle id="180" type="bike" depart="180.00">
        <route edges="edgeOutBottom edgeInLeft"/>
    </vehicle>
    <vehicle id="181" type="bus" depart="181.00">
        <route edges="edgeOutTop edgeInBottom"/>
    </vehicle>
    <vehicle id="182" type="bike" depart="182.00">
        <route edges="edgeOutLeft edgeInRight"/>
    </vehicle>
    <vehicle id="183" type="car" depart="183.00">
        <route edges="edgeOutLeft edgeInRight"/>
    </vehicle>
    <vehicle id="184" type="bus" depart="184.00">
        <route edges="edgeOutRight edgeInLeft"/>
    </vehicle>
    <vehicle id="185" type="bike" depart="185.00">
        <route edges="edgeOutLeft edgeInBottom"/>
    </vehicle>
    <vehicle id="186" type="bus" depart="186.00">
        <route edges="edgeOutRight edgeInTop"/>
    </vehicle>
    <vehicle id="187" type="bike" depart="187.00">
        <route edges="edgeOutTop edgeInRight"/>
    </vehicle>
    <vehicle id="188" type="car" depart="188.00">
        <route edges="edgeOutRight edgeInTop"/>
    </vehicle>
    <vehicle id="189" type="bike" depart="189.00">
        <route edges="edgeOutBottom edgeInTop"/>
    </vehicle>
    <vehicle id="190" type="bike" depart="190.00">
        <route edges="edgeOutRight edgeInLeft"/>
    </vehicle>
    <vehicle id="191" type="bus" depart="191.00">
        <route edges="edgeOutBottom edgeInTop"/>
    </vehicle>
    <vehicle id="192" type="car" depart="192.00">
        <route edges="edgeOutTop edgeInBottom"/>
    </vehicle>
    <vehicle id="193" type="bike" depart="193.00">
        <route edges="edgeOutRight edgeInBottom"/>
    </vehicle>
    <vehicle id="194" type="bus" depart="194.00">
        <route edges="edgeOutRight edgeInTop"/>
    </vehicle>
    <vehicle id="195" type="bus" depart="195.00">
        <route edges="edgeOutBottom edgeInLeft"/>
    </vehicle>
    <vehicle id="196" type="bike" depart="196.00">
        <route edges="edgeOutBottom edgeInRight"/>
    </vehicle>
    <vehicle id="197" type="bike" depart="197.00">
        <route edges="edgeOutRight edgeInLeft"/>
    </vehicle>
    <vehicle id="198" type="bike" depart="198.00">
        <route edges="edgeOutBottom edgeInRight"/>
    </vehicle>
    <vehicle id="199" type="car" depart="199.00">
        <route edges="edgeOutBottom edgeInTop"/>
    </vehicle>
    <vehicle id="200" type="bike" depart="200.00">
        <route edges="edgeOutBottom edgeInTop"/>
    </vehicle>
    <vehicle id="201" type="car" depart="201.00">
        <route edges="edgeOutTop edgeInRight"/>
    </vehicle>
    <vehicle id="202" type="bike" depart="202.00">
        <route edges="edgeOutBottom edgeInTop"/>
    </vehicle>
    <vehicle id="203" type="car" depart="203.00">
        <route edges="edgeOutBottom edgeInLeft"/>
    </vehicle>
    <vehicle id="204" type="car" depart="204.00">
        <route edges="edgeOutRight edgeInBottom"/>
    </vehicle>
    <vehicle id="205" type="bike" depart="205.00">
        <route edges="edgeOutRight edgeInTop"/>
    </vehicle>
    <vehicle id="206" type="bus" depart="206.00">
        <route edges="edgeOutTop edgeInLeft"/>
    </vehicle>
    <vehicle id="207" type="bike" depart="207.00">
        <route edges="edgeOutTop edgeInRight"/>
    </vehicle>
    <vehicle id="208" type="bike" depart="208.00">
        <route edges="edgeOutBottom edgeInTop"/>
    </vehicle>
    <vehicle id="209" type="bus" depart="209.00">
        <route edges="edgeOutBottom edgeInRight"/>
    </vehicle>
    <vehicle id="210" type="bike" depart="210.00">
        <route edges="edgeOutTop edgeInLeft"/>
    </vehicle>
    <vehicle id="211" type="bike" depart="211.00">
        <route edges="edgeOutRight edgeInLeft"/>
    </vehicle>
    <vehicle id="212" type="bike" depart="212.00">
        <route edges="edgeOutBottom edgeInRight"/>
    </vehicle>
    <vehicle id="213" type="bus" depart="213.00">
        <route edges="edgeOutTop edgeInLeft"/>
    </vehicle>
    <vehicle id="214" type="bus" depart="214.00">
        <route edges="edgeOutLeft edgeInBottom"/>
    </vehicle>
    <vehicle id="215" type="bus" depart="215.00">
        <route edges="edgeOutBottom edgeInRight"/>
    </vehicle>
    <vehicle id="216" type="bus" depart="216.00">
        <route edges="edgeOutRight edgeInTop"/>
    </vehicle>
    <vehicle id="217" type="bus" depart="217.00">
        <route edges="edgeOutRight edgeInLeft"/>
    </vehicle>
    <vehicle id="218" type="bus" depart="218.00">
        <route edges="edgeOutBottom edgeInRight"/>
    </vehicle>
    <vehicle id="219" type="bike" depart="219.00">
        <route edges="edgeOutTop edgeInLeft"/>
    </vehicle>
    <vehicle id="220" type="bike" depart="220.00">
        <route edges="edgeOutTop edgeInRight"/>
    </vehicle>
    <vehicle id="221" type="bike" depart="221.00">
        <route edges="edgeOutRight edgeInLeft"/>
    </vehicle>
    <vehicle id="222" type="bus" depart="222.00">
        <route edges="edgeOutRight edgeInBottom"/>
    </vehicle>
    <vehicle id="223" type="bus" depart="223.00">
        <route edges="edgeOutBottom edgeInTop"/>
    </vehicle>
    <vehicle id="224" type="bike" depart="224.00">
        <route edges="edgeOutBottom edgeInLeft"/>
    </vehicle>
    <vehicle id="225" type="bus" depart="225.00">
        <route edges="edgeOutBottom edgeInTop"/>
    </vehicle>
    <vehicle id="226" type="car" depart="226.00">
        <route edges="edgeOutLeft edgeInRight"/>
    </vehicle>
    <vehicle id="227" type="car" depart="227.00">
        <route edges="edgeOutBottom edgeInTop"/>
    </vehicle>
    <vehicle id="228" type="bus" depart="228.00">
        <route edges="edgeOutBottom edgeInLeft"/>
    </vehicle>
    <vehicle id="229" type="bus" depart="229.00">
        <route edges="edgeOutTop edgeInLeft"/>
    </vehicle>
    <vehicle id="230" type="bike" depart="230.00">
        <route edges="edgeOutTop edgeInLeft"/>
    </vehicle>
    <vehicle id="231" type="bike" depart="231.00">
        <route edges="edgeOutLeft edgeInRight"/>
    </vehicle>
    <vehicle id="232" type="bus" depart="232.00">
        <route edges="edgeOutLeft edgeInTop"/>
    </vehicle>
    <vehicle id="233" type="car" depart="233.00">
        <route edges="edgeOutBottom edgeInLeft"/>
    </vehicle>
    <vehicle id="234" type="car" depart="234.00">
        <route edges="edgeOutTop edgeInRight"/>
    </vehicle>
    <vehicle id="235" type="bike" depart="235.00">
        <route edges="edgeOutLeft edgeInBottom"/>
    </vehicle>
    <vehicle id="236" type="bus" depart="236.00">
        <route edges="edgeOutBottom edgeInRight"/>
    </vehicle>
    <vehicle id="237" type="bus" depart="237.00">
        <route edges="edgeOutTop edgeInRight"/>
    </vehicle>
    <vehicle id="238" type="car" depart="238.00">
        <route edges="edgeOutRight edgeInLeft"/>
    </vehicle>
    <vehicle id="239" type="bike" depart="239.00">
        <route edges="edgeOutBottom edgeInLeft"/>
    </vehicle>
    <vehicle id="240" type="bus" depart="240.00">
        <route edges="edgeOutRight edgeInLeft"/>
    </vehicle>
    <vehicle id="241" type="bike" depart="241.00">
        <route edges="edgeOutRight edgeInTop"/>
    </vehicle>
    <vehicle id="242" type="car" depart="242.00">
        <route edges="edgeOutBottom edgeInLeft"/>
    </vehicle>
    <vehicle id="243" type="bike" depart="243.00">
        <route edges="edgeOutLeft edgeInRight"/>
    </vehicle>
    <vehicle id="244" type="bus" depart="244.00">
        <route edges="edgeOutBottom edgeInLeft"/>
    </vehicle>
    <vehicle id="245" type="bus" depart="245.00">
        <route edges="edgeOutLeft edgeInBottom"/>
    </vehicle>
    <vehicle id="246" type="bus" depart="246.00">
        <route edges="edgeOutLeft edgeInTop"/>
    </vehicle>
    <vehicle id="247" type="bike" depart="247.00">
        <route edges="edgeOutBottom edgeInLeft"/>
    </vehicle>
    <vehicle id="248" type="bus" depart="248.00">
        <route edges="edgeOutRight edgeInTop"/>
    </vehicle>
    <vehicle id="249" type="car" depart="249.00">
        <route edges="edgeOutLeft edgeInRight"/>
    </vehicle>
    <vehicle id="250" type="bus" depart="250.00">
        <route edges="edgeOutTop edgeInRight"/>
    </vehicle>