<routes xmlns:xsi="http://www.w3.org/2001/XMLSchema-instance" xsi:noNamespaceSchemaLocation="http://sumo.dlr.de/xsd/routes_file.xsd">
    <vehicle id="0" depart="5.3334055046333955">
        <route edges="edgeOutRight edgeInBottom" />
    </vehicle>
    <vehicle id="1" depart="13.278798662076786">
        <route edges="edgeOutLeft edgeInBottom" />
    </vehicle>
    <vehicle id="2" depart="22.5945038159904">
        <route edges="edgeOutRight edgeInRight" />
    </vehicle>
    <vehicle id="3" depart="31.198933070736484">
        <route edges="edgeOutTop edgeInBottom" />
    </vehicle>
    <vehicle id="4" depart="39.87360441831842">
        <route edges="edgeOutLeft edgeInBottom" />
    </vehicle>
    <vehicle id="5" depart="48.71663692763407">
        <route edges="edgeOutBottom edgeInRight" />
    </vehicle>
    <vehicle id="6" depart="54.82238591726325">
        <route edges="edgeOutBottom edgeInBottom" />
    </vehicle>
    <vehicle id="7" depart="62.77023364059921">
        <route edges="edgeOutRight edgeInRight" />
    </vehicle>
    <vehicle id="8" depart="72.64121259533005">
        <route edges="edgeOutBottom edgeInRight" />
    </vehicle>
    <vehicle id="9" depart="82.58076531349106">
        <route edges="edgeOutTop edgeInBottom" />
    </vehicle>
    <vehicle id="10" depart="88.26610363997047">
        <route edges="edgeOutTop edgeInRight" />
    </vehicle>
    <vehicle id="11" depart="94.54364777963337">
        <route edges="edgeOutLeft edgeInBottom" />
    </vehicle>
    <vehicle id="12" depart="101.83172248568678">
        <route edges="edgeOutTop edgeInLeft" />
    </vehicle>
    <vehicle id="13" depart="106.83790439637104">
        <route edges="edgeOutBottom edgeInBottom" />
    </vehicle>
    <vehicle id="14" depart="115.58131005030874">
        <route edges="edgeOutTop edgeInRight" />
    </vehicle>
    <vehicle id="15" depart="122.9309678357679">
        <route edges="edgeOutTop edgeInRight" />
    </vehicle>
    <vehicle id="16" depart="127.99692442936654">
        <route edges="edgeOutRight edgeInTop" />
    </vehicle>
    <vehicle id="17" depart="133.93921008057066">
        <route edges="edgeOutLeft edgeInRight" />
    </vehicle>
    <vehicle id="18" depart="142.337270870649">
        <route edges="edgeOutTop edgeInRight" />
    </vehicle>
    <vehicle id="19" depart="150.64452812411696">
        <route edges="edgeOutTop edgeInRight" />
    </vehicle>
    <vehicle id="20" depart="160.3455750213064">
        <route edges="edgeOutRight edgeInBottom" />
    </vehicle>
    <vehicle id="21" depart="167.425436342091">
        <route edges="edgeOutBottom edgeInLeft" />
    </vehicle>
    <vehicle id="22" depart="176.71386437003454">
        <route edges="edgeOutBottom edgeInBottom" />
    </vehicle>
    <vehicle id="23" depart="184.62372695489952">
        <route edges="edgeOutBottom edgeInLeft" />
    </vehicle>
    <vehicle id="24" depart="193.12816650741632">
        <route edges="edgeOutRight edgeInLeft" />
    </vehicle>
    <vehicle id="25" depart="201.1360000205291">
        <route edges="edgeOutLeft edgeInBottom" />
    </vehicle>
    <vehicle id="26" depart="206.72603538229686">
        <route edges="edgeOutLeft edgeInTop" />
    </vehicle>
    <vehicle id="27" depart="211.96051168758942">
        <route edges="edgeOutRight edgeInRight" />
    </vehicle>
    <vehicle id="28" depart="219.74503553320943">
        <route edges="edgeOutBottom edgeInRight" />
    </vehicle>
    <vehicle id="29" depart="227.81899516783184">
        <route edges="edgeOutBottom edgeInLeft" />
    </vehicle>
    <vehicle id="30" depart="233.36244036098267">
        <route edges="edgeOutTop edgeInRight" />
    </vehicle>
    <vehicle id="31" depart="239.1250200226215">
        <route edges="edgeOutRight edgeInRight" />
    </vehicle>
    <vehicle id="32" depart="246.65978356910583">
        <route edges="edgeOutTop edgeInTop" />
    </vehicle>
    <vehicle id="33" depart="255.4916402753474">
        <route edges="edgeOutBottom edgeInBottom" />
    </vehicle>
    <vehicle id="34" depart="260.52645954273356">
        <route edges="edgeOutLeft edgeInLeft" />
    </vehicle>
    <vehicle id="35" depart="268.20240668969296">
        <route edges="edgeOutBottom edgeInTop" />
    </vehicle>
    <vehicle id="36" depart="277.78423449840824">
        <route edges="edgeOutTop edgeInLeft" />
    </vehicle>
    <vehicle id="37" depart="285.3526651253507">
        <route edges="edgeOutRight edgeInLeft" />
    </vehicle>
    <vehicle id="38" depart="294.7735507577944">
        <route edges="edgeOutTop edgeInLeft" />
    </vehicle>
    <vehicle id="39" depart="304.58686540616037">
        <route edges="edgeOutLeft edgeInBottom" />
    </vehicle>
    <vehicle id="40" depart="313.2340767411543">
        <route edges="edgeOutRight edgeInLeft" />
    </vehicle>
    <vehicle id="41" depart="320.4758395630719">
        <route edges="edgeOutRight edgeInTop" />
    </vehicle>
    <vehicle id="42" depart="330.21138691853866">
        <route edges="edgeOutLeft edgeInBottom" />
    </vehicle>
    <vehicle id="43" depart="338.16670517886433">
        <route edges="edgeOutTop edgeInRight" />
    </vehicle>
    <vehicle id="44" depart="347.4097962275708">
        <route edges="edgeOutBottom edgeInBottom" />
    </vehicle>
    <vehicle id="45" depart="354.7396571937071">
        <route edges="edgeOutBottom edgeInRight" />
    </vehicle>
    <vehicle id="46" depart="359.90378579390585">
        <route edges="edgeOutTop edgeInLeft" />
    </vehicle>
    <vehicle id="47" depart="368.8727669170154">
        <route edges="edgeOutBottom edgeInLeft" />
    </vehicle>
    <vehicle id="48" depart="378.8530789938931">
        <route edges="edgeOutTop edgeInRight" />
    </vehicle>
    <vehicle id="49" depart="387.1533134197837">
        <route edges="edgeOutTop edgeInTop" />
    </vehicle>
    <vehicle id="50" depart="394.9468674489741">
        <route edges="edgeOutBottom edgeInRight" />
    </vehicle>
    <vehicle id="51" depart="400.5914925464229">
        <route edges="edgeOutRight edgeInRight" />
    </vehicle>
    <vehicle id="52" depart="407.58603239611">
        <route edges="edgeOutLeft edgeInRight" />
    </vehicle>
    <vehicle id="53" depart="412.6314318877197">
        <route edges="edgeOutBottom edgeInLeft" />
    </vehicle>
    <vehicle id="54" depart="421.1195956259523">
        <route edges="edgeOutLeft edgeInTop" />
    </vehicle>
    <vehicle id="55" depart="429.95062323162193">
        <route edges="edgeOutTop edgeInLeft" />
    </vehicle>
    <vehicle id="56" depart="436.00612978363563">
        <route edges="edgeOutRight edgeInBottom" />
    </vehicle>
    <vehicle id="57" depart="441.8330290556808">
        <route edges="edgeOutTop edgeInTop" />
    </vehicle>
    <vehicle id="58" depart="449.5708764282432">
        <route edges="edgeOutLeft edgeInRight" />
    </vehicle>
    <vehicle id="59" depart="458.4277969544147">
        <route edges="edgeOutRight edgeInBottom" />
    </vehicle>
    <vehicle id="60" depart="467.8813654480074">
        <route edges="edgeOutTop edgeInRight" />
    </vehicle>
    <vehicle id="61" depart="477.3026566961304">
        <route edges="edgeOutTop edgeInRight" />
    </vehicle>
    <vehicle id="62" depart="485.8911002650822">
        <route edges="edgeOutBottom edgeInLeft" />
    </vehicle>
    <vehicle id="63" depart="492.21267617881165">
        <route edges="edgeOutBottom edgeInTop" />
    </vehicle>
    <vehicle id="64" depart="501.1500464965773">
        <route edges="edgeOutTop edgeInTop" />
    </vehicle>
    <vehicle id="65" depart="506.77781997427996">
        <route edges="edgeOutLeft edgeInBottom" />
    </vehicle>
    <vehicle id="66" depart="515.9962073050754">
        <route edges="edgeOutTop edgeInTop" />
    </vehicle>
    <vehicle id="67" depart="524.4686679492586">
        <route edges="edgeOutBottom edgeInLeft" />
    </vehicle>
    <vehicle id="68" depart="534.0929229114624">
        <route edges="edgeOutBottom edgeInTop" />
    </vehicle>
    <vehicle id="69" depart="543.5794034222579">
        <route edges="edgeOutTop edgeInBottom" />
    </vehicle>
    <vehicle id="70" depart="549.2602052276131">
        <route edges="edgeOutLeft edgeInRight" />
    </vehicle>
    <vehicle id="71" depart="555.5444021535058">
        <route edges="edgeOutLeft edgeInTop" />
    </vehicle>
    <vehicle id="72" depart="561.6689346298989">
        <route edges="edgeOutLeft edgeInBottom" />
    </vehicle>
    <vehicle id="73" depart="570.5317603564786">
        <route edges="edgeOutRight edgeInRight" />
    </vehicle>
    <vehicle id="74" depart="576.0150291503885">
        <route edges="edgeOutBottom edgeInLeft" />
    </vehicle>
    <vehicle id="75" depart="585.2984801280004">
        <route edges="edgeOutTop edgeInRight" />
    </vehicle>
    <vehicle id="76" depart="593.4399795018574">
        <route edges="edgeOutLeft edgeInRight" />
    </vehicle>
    <vehicle id="77" depart="603.4103288662051">
        <route edges="edgeOutBottom edgeInBottom" />
    </vehicle>
    <vehicle id="78" depart="612.6814423845423">
        <route edges="edgeOutLeft edgeInRight" />
    </vehicle>
    <vehicle id="79" depart="622.4103280699612">
        <route edges="edgeOutBottom edgeInBottom" />
    </vehicle>
    <vehicle id="80" depart="631.4149715043011">
        <route edges="edgeOutBottom edgeInRight" />
    </vehicle>
    <vehicle id="81" depart="638.2139372171919">
        <route edges="edgeOutBottom edgeInTop" />
    </vehicle>
    <vehicle id="82" depart="644.3327696827155">
        <route edges="edgeOutTop edgeInBottom" />
    </vehicle>
    <vehicle id="83" depart="649.7286860285795">
        <route edges="edgeOutBottom edgeInRight" />
    </vehicle>
    <vehicle id="84" depart="656.1343640421331">
        <route edges="edgeOutBottom edgeInBottom" />
    </vehicle>
    <vehicle id="85" depart="662.9980534245401">
        <route edges="edgeOutTop edgeInRight" />
    </vehicle>
    <vehicle id="86" depart="668.5335498626793">
        <route edges="edgeOutLeft edgeInTop" />
    </vehicle>
    <vehicle id="87" depart="676.974432496569">
        <route edges="edgeOutTop edgeInBottom" />
    </vehicle>
    <vehicle id="88" depart="683.5177351199101">
        <route edges="edgeOutBottom edgeInLeft" />
    </vehicle>
    <vehicle id="89" depart="691.0432480317193">
        <route edges="edgeOutLeft edgeInLeft" />
    </vehicle>
    <vehicle id="90" depart="697.3003962065916">
        <route edges="edgeOutRight edgeInRight" />
    </vehicle>
    <vehicle id="91" depart="706.0292560280791">
        <route edges="edgeOutTop edgeInBottom" />
    </vehicle>
    <vehicle id="92" depart="711.9752742302535">
        <route edges="edgeOutLeft edgeInLeft" />
    </vehicle>
    <vehicle id="93" depart="719.3149937016989">
        <route edges="edgeOutTop edgeInBottom" />
    </vehicle>
    <vehicle id="94" depart="728.6174016528245">
        <route edges="edgeOutBottom edgeInLeft" />
    </vehicle>
    <vehicle id="95" depart="738.1743454298901">
        <route edges="edgeOutLeft edgeInLeft" />
    </vehicle>
    <vehicle id="96" depart="744.9521051919916">
        <route edges="edgeOutBottom edgeInTop" />
    </vehicle>
    <vehicle id="97" depart="751.2747237797524">
        <route edges="edgeOutLeft edgeInTop" />
    </vehicle>
    <vehicle id="98" depart="757.773303976676">
        <route edges="edgeOutRight edgeInBottom" />
    </vehicle>
    <vehicle id="99" depart="766.4731741922764">
        <route edges="edgeOutTop edgeInTop" />
    </vehicle>
    <vehicle id="100" depart="775.407173741448">
        <route edges="edgeOutTop edgeInTop" />
    </vehicle>
    <vehicle id="101" depart="783.4993876789129">
        <route edges="edgeOutTop edgeInBottom" />
    </vehicle>
    <vehicle id="102" depart="793.0499345943357">
        <route edges="edgeOutLeft edgeInBottom" />
    </vehicle>
    <vehicle id="103" depart="799.4431327659972">
        <route edges="edgeOutLeft edgeInBottom" />
    </vehicle>
    <vehicle id="104" depart="805.0695334167774">
        <route edges="edgeOutLeft edgeInTop" />
    </vehicle>
    <vehicle id="105" depart="811.554625801177">
        <route edges="edgeOutLeft edgeInTop" />
    </vehicle>
    <vehicle id="106" depart="819.3130135453216">
        <route edges="edgeOutLeft edgeInLeft" />
    </vehicle>
    <vehicle id="107" depart="826.5254046328498">
        <route edges="edgeOutTop edgeInTop" />
    </vehicle>
    <vehicle id="108" depart="836.0338899987378">
        <route edges="edgeOutRight edgeInRight" />
    </vehicle>
    <vehicle id="109" depart="841.5182198676392">
        <route edges="edgeOutBottom edgeInLeft" />
    </vehicle>
    <vehicle id="110" depart="847.6223943596382">
        <route edges="edgeOutTop edgeInRight" />
    </vehicle>
    <vehicle id="111" depart="852.881922435313">
        <route edges="edgeOutRight edgeInRight" />
    </vehicle>
    <vehicle id="112" depart="860.2755114490747">
        <route edges="edgeOutBottom edgeInRight" />
    </vehicle>
    <vehicle id="113" depart="866.9822891845046">
        <route edges="edgeOutRight edgeInTop" />
    </vehicle>
    <vehicle id="114" depart="876.2615738503872">
        <route edges="edgeOutBottom edgeInTop" />
    </vehicle>
    <vehicle id="115" depart="885.6540782924283">
        <route edges="edgeOutBottom edgeInBottom" />
    </vehicle>
    <vehicle id="116" depart="894.3531139645736">
        <route edges="edgeOutRight edgeInRight" />
    </vehicle>
    <vehicle id="117" depart="899.8547698176162">
        <route edges="edgeOutBottom edgeInBottom" />
    </vehicle>
    <vehicle id="118" depart="907.9641150807146">
        <route edges="edgeOutTop edgeInBottom" />
    </vehicle>
    <vehicle id="119" depart="915.5642352160496">
        <route edges="edgeOutRight edgeInRight" />
    </vehicle>
    <vehicle id="120" depart="922.8517590302262">
        <route edges="edgeOutLeft edgeInRight" />
    </vehicle>
    <vehicle id="121" depart="929.9742596763282">
        <route edges="edgeOutRight edgeInTop" />
    </vehicle>
    <vehicle id="122" depart="939.2951319258361">
        <route edges="edgeOutBottom edgeInRight" />
    </vehicle>
    <vehicle id="123" depart="944.7678629832386">
        <route edges="edgeOutBottom edgeInLeft" />
    </vehicle>
    <vehicle id="124" depart="954.5901741534898">
        <route edges="edgeOutRight edgeInLeft" />
    </vehicle>
    <vehicle id="125" depart="962.8582254233403">
        <route edges="edgeOutLeft edgeInTop" />
    </vehicle>
    <vehicle id="126" depart="968.5102019458674">
        <route edges="edgeOutBottom edgeInLeft" />
    </vehicle>
    <vehicle id="127" depart="975.4373932688426">
        <route edges="edgeOutTop edgeInTop" />
    </vehicle>
    <vehicle id="128" depart="983.8561835531351">
        <route edges="edgeOutBottom edgeInBottom" />
    </vehicle>
    <vehicle id="129" depart="991.0062679059574">
        <route edges="edgeOutLeft edgeInTop" />
    </vehicle>
    <vehicle id="130" depart="1000.019814007975">
        <route edges="edgeOutTop edgeInTop" />
    </vehicle>
    <vehicle id="131" depart="1006.3941729343876">
        <route edges="edgeOutLeft edgeInBottom" />
    </vehicle>
    <vehicle id="132" depart="1015.2481012384505">
        <route edges="edgeOutTop edgeInRight" />
    </vehicle>
    <vehicle id="133" depart="1022.9609572267206">
        <route edges="edgeOutRight edgeInTop" />
    </vehicle>
    <vehicle id="134" depart="1031.5259435338276">
        <route edges="edgeOutRight edgeInBottom" />
    </vehicle>
    <vehicle id="135" depart="1036.9995948490866">
        <route edges="edgeOutTop edgeInLeft" />
    </vehicle>
    <vehicle id="136" depart="1042.4152821830444">
        <route edges="edgeOutRight edgeInTop" />
    </vehicle>
    <vehicle id="137" depart="1049.6240529331292">
        <route edges="edgeOutBottom edgeInBottom" />
    </vehicle>
    <vehicle id="138" depart="1056.49098333407">
        <route edges="edgeOutBottom edgeInRight" />
    </vehicle>
    <vehicle id="139" depart="1066.3028512859478">
        <route edges="edgeOutLeft edgeInRight" />
    </vehicle>
    <vehicle id="140" depart="1073.4943499299607">
        <route edges="edgeOutRight edgeInBottom" />
    </vehicle>
    <vehicle id="141" depart="1079.6874117415916">
        <route edges="edgeOutRight edgeInLeft" />
    </vehicle>
    <vehicle id="142" depart="1088.0692025000317">
        <route edges="edgeOutLeft edgeInTop" />
    </vehicle>
    <vehicle id="143" depart="1097.8888268674675">
        <route edges="edgeOutTop edgeInBottom" />
    </vehicle>
    <vehicle id="144" depart="1104.0920221576584">
        <route edges="edgeOutLeft edgeInLeft" />
    </vehicle>
    <vehicle id="145" depart="1109.3099583589474">
        <route edges="edgeOutBottom edgeInTop" />
    </vehicle>
    <vehicle id="146" depart="1118.346850637899">
        <route edges="edgeOutRight edgeInLeft" />
    </vehicle>
    <vehicle id="147" depart="1123.3921640289745">
        <route edges="edgeOutRight edgeInRight" />
    </vehicle>
    <vehicle id="148" depart="1129.0583994330268">
        <route edges="edgeOutLeft edgeInBottom" />
    </vehicle>
    <vehicle id="149" depart="1136.7463124273854">
        <route edges="edgeOutBottom edgeInTop" />
    </vehicle>
    <vehicle id="150" depart="1145.6701175999071">
        <route edges="edgeOutTop edgeInRight" />
    </vehicle>
    <vehicle id="151" depart="1155.5584290588358">
        <route edges="edgeOutTop edgeInRight" />
    </vehicle>
    <vehicle id="152" depart="1164.440433345452">
        <route edges="edgeOutBottom edgeInBottom" />
    </vehicle>
    <vehicle id="153" depart="1169.5451780591968">
        <route edges="edgeOutLeft edgeInTop" />
    </vehicle>
    <vehicle id="154" depart="1178.8383150784268">
        <route edges="edgeOutTop edgeInTop" />
    </vehicle>
    <vehicle id="155" depart="1188.5223468389652">
        <route edges="edgeOutTop edgeInBottom" />
    </vehicle>
    <vehicle id="156" depart="1194.7803063520262">
        <route edges="edgeOutBottom edgeInBottom" />
    </vehicle>
    <vehicle id="157" depart="1201.9138363547959">
        <route edges="edgeOutTop edgeInTop" />
    </vehicle>
    <vehicle id="158" depart="1208.39945151751">
        <route edges="edgeOutLeft edgeInRight" />
    </vehicle>
    <vehicle id="159" depart="1216.5410634998054">
        <route edges="edgeOutBottom edgeInTop" />
    </vehicle>
    <vehicle id="160" depart="1223.290703091336">
        <route edges="edgeOutTop edgeInTop" />
    </vehicle>
    <vehicle id="161" depart="1228.5591775104415">
        <route edges="edgeOutTop edgeInTop" />
    </vehicle>
    <vehicle id="162" depart="1237.73790053267">
        <route edges="edgeOutBottom edgeInRight" />
    </vehicle>
    <vehicle id="163" depart="1245.1675478941006">
        <route edges="edgeOutLeft edgeInTop" />
    </vehicle>
    <vehicle id="164" depart="1250.521913158784">
        <route edges="edgeOutTop edgeInTop" />
    </vehicle>
    <vehicle id="165" depart="1257.0154259708177">
        <route edges="edgeOutTop edgeInLeft" />
    </vehicle>
    <vehicle id="166" depart="1264.5691976830253">
        <route edges="edgeOutTop edgeInBottom" />
    </vehicle>
    <vehicle id="167" depart="1272.2480451037534">
        <route edges="edgeOutTop edgeInTop" />
    </vehicle>
    <vehicle id="168" depart="1277.8849702666737">
        <route edges="edgeOutBottom edgeInTop" />
    </vehicle>
    <vehicle id="169" depart="1283.975899821815">
        <route edges="edgeOutLeft edgeInLeft" />
    </vehicle>
    <vehicle id="170" depart="1290.2254749780006">
        <route edges="edgeOutTop edgeInBottom" />
    </vehicle>
    <vehicle id="171" depart="1296.805924514769">
        <route edges="edgeOutBottom edgeInBottom" />
    </vehicle>
    <vehicle id="172" depart="1304.217716808682">
        <route edges="edgeOutLeft edgeInTop" />
    </vehicle>
    <vehicle id="173" depart="1314.1530648835183">
        <route edges="edgeOutTop edgeInLeft" />
    </vehicle>
    <vehicle id="174" depart="1320.3339026480364">
        <route edges="edgeOutRight edgeInLeft" />
    </vehicle>
    <vehicle id="175" depart="1328.5254089341647">
        <route edges="edgeOutTop edgeInRight" />
    </vehicle>
    <vehicle id="176" depart="1338.1617004803609">
        <route edges="edgeOutTop edgeInBottom" />
    </vehicle>
    <vehicle id="177" depart="1344.4903009887087">
        <route edges="edgeOutTop edgeInBottom" />
    </vehicle>
    <vehicle id="178" depart="1352.1530943338441">
        <route edges="edgeOutTop edgeInLeft" />
    </vehicle>
    <vehicle id="179" depart="1358.6493299087215">
        <route edges="edgeOutBottom edgeInLeft" />
    </vehicle>
    <vehicle id="180" depart="1366.0758671560234">
        <route edges="edgeOutRight edgeInLeft" />
    </vehicle>
    <vehicle id="181" depart="1371.1392692424836">
        <route edges="edgeOutRight edgeInRight" />
    </vehicle>
    <vehicle id="182" depart="1378.6231646159385">
        <route edges="edgeOutLeft edgeInRight" />
    </vehicle>
    <vehicle id="183" depart="1386.5961422959529">
        <route edges="edgeOutLeft edgeInRight" />
    </vehicle>
    <vehicle id="184" depart="1396.2072712960817">
        <route edges="edgeOutBottom edgeInTop" />
    </vehicle>
    <vehicle id="185" depart="1403.8848936145494">
        <route edges="edgeOutRight edgeInRight" />
    </vehicle>
    <vehicle id="186" depart="1410.1635689305972">
        <route edges="edgeOutRight edgeInRight" />
    </vehicle>
    <vehicle id="187" depart="1419.7448637886223">
        <route edges="edgeOutLeft edgeInBottom" />
    </vehicle>
    <vehicle id="188" depart="1429.3630366932457">
        <route edges="edgeOutRight edgeInLeft" />
    </vehicle>
    <vehicle id="189" depart="1438.7514544401454">
        <route edges="edgeOutLeft edgeInTop" />
    </vehicle>
    <vehicle id="190" depart="1447.8279434513959">
        <route edges="edgeOutRight edgeInLeft" />
    </vehicle>
    <vehicle id="191" depart="1457.0142097682035">
        <route edges="edgeOutLeft edgeInLeft" />
    </vehicle>
    <vehicle id="192" depart="1465.3349210402694">
        <route edges="edgeOutLeft edgeInLeft" />
    </vehicle>
    <vehicle id="193" depart="1473.3069315169264">
        <route edges="edgeOutBottom edgeInLeft" />
    </vehicle>
    <vehicle id="194" depart="1482.0923056166685">
        <route edges="edgeOutTop edgeInRight" />
    </vehicle>
    <vehicle id="195" depart="1489.2398768547223">
        <route edges="edgeOutTop edgeInRight" />
    </vehicle>
    <vehicle id="196" depart="1495.7150140143674">
        <route edges="edgeOutLeft edgeInRight" />
    </vehicle>
    <vehicle id="197" depart="1502.341013716553">
        <route edges="edgeOutBottom edgeInLeft" />
    </vehicle>
    <vehicle id="198" depart="1508.2633217745222">
        <route edges="edgeOutLeft edgeInRight" />
    </vehicle>
    <vehicle id="199" depart="1517.093936324532">
        <route edges="edgeOutRight edgeInLeft" />
    </vehicle>
</routes>