<routes xmlns:xsi="http://www.w3.org/2001/XMLSchema-instance" xsi:noNamespaceSchemaLocation="http://sumo.dlr.de/xsd/routes_file.xsd">
    <vehicle id="0" type="bike" depart="5.5348437458267465">
        <route edges="edgeOutBottom edgeInTop" />
    </vehicle>
    <vehicle id="1" type="bike" depart="14.500316127682998">
        <route edges="edgeOutBottom edgeInLeft" />
    </vehicle>
    <vehicle id="2" type="car" depart="21.61796511946917">
        <route edges="edgeOutBottom edgeInRight" />
    </vehicle>
    <vehicle id="3" type="bike" depart="31.2023974516685">
        <route edges="edgeOutRight edgeInLeft" />
    </vehicle>
    <vehicle id="4" type="bike" depart="38.12965007491964">
        <route edges="edgeOutLeft edgeInRight" />
    </vehicle>
    <vehicle id="5" type="bike" depart="45.41125348917709">
        <route edges="edgeOutTop edgeInBottom" />
    </vehicle>
    <vehicle id="6" type="car" depart="54.87540797533087">
        <route edges="edgeOutLeft edgeInBottom" />
    </vehicle>
    <vehicle id="7" type="car" depart="61.92012677535894">
        <route edges="edgeOutBottom edgeInTop" />
    </vehicle>
    <vehicle id="8" type="bus" depart="71.32934581729683">
        <route edges="edgeOutBottom edgeInLeft" />
    </vehicle>
    <vehicle id="9" type="bike" depart="78.49152547186073">
        <route edges="edgeOutBottom edgeInLeft" />
    </vehicle>
    <vehicle id="10" type="bike" depart="85.93243232997749">
        <route edges="edgeOutRight edgeInTop" />
    </vehicle>
    <vehicle id="11" type="bus" depart="92.35651622600534">
        <route edges="edgeOutTop edgeInLeft" />
    </vehicle>
    <vehicle id="12" type="car" depart="102.10464048704554">
        <route edges="edgeOutLeft edgeInRight" />
    </vehicle>
    <vehicle id="13" type="bike" depart="111.44919697356954">
        <route edges="edgeOutBottom edgeInLeft" />
    </vehicle>
    <vehicle id="14" type="car" depart="121.26351513957822">
        <route edges="edgeOutLeft edgeInTop" />
    </vehicle>
    <vehicle id="15" type="bike" depart="130.85715548245454">
        <route edges="edgeOutRight edgeInLeft" />
    </vehicle>
    <vehicle id="16" type="bus" depart="136.7786085250115">
        <route edges="edgeOutRight edgeInBottom" />
    </vehicle>
    <vehicle id="17" type="car" depart="141.87540929381117">
        <route edges="edgeOutLeft edgeInRight" />
    </vehicle>
    <vehicle id="18" type="car" depart="149.9616921247904">
        <route edges="edgeOutRight edgeInLeft" />
    </vehicle>
    <vehicle id="19" type="bus" depart="157.0431189331299">
        <route edges="edgeOutRight edgeInBottom" />
    </vehicle>
    <vehicle id="20" type="car" depart="163.90833028454838">
        <route edges="edgeOutLeft edgeInTop" />
    </vehicle>
    <vehicle id="21" type="bus" depart="171.9660139916503">
        <route edges="edgeOutBottom edgeInRight" />
    </vehicle>
    <vehicle id="22" type="bus" depart="179.4162320779641">
        <route edges="edgeOutTop edgeInRight" />
    </vehicle>
    <vehicle id="23" type="bike" depart="188.3257741582639">
        <route edges="edgeOutTop edgeInBottom" />
    </vehicle>
    <vehicle id="24" type="car" depart="194.84260152763017">
        <route edges="edgeOutBottom edgeInLeft" />
    </vehicle>
    <vehicle id="25" type="bus" depart="202.06092834769743">
        <route edges="edgeOutRight edgeInLeft" />
    </vehicle>
    <vehicle id="26" type="bike" depart="211.33202863360688">
        <route edges="edgeOutTop edgeInLeft" />
    </vehicle>
    <vehicle id="27" type="car" depart="219.8107150829376">
        <route edges="edgeOutRight edgeInTop" />
    </vehicle>
    <vehicle id="28" type="car" depart="229.62137017567449">
        <route edges="edgeOutRight edgeInLeft" />
    </vehicle>
    <vehicle id="29" type="car" depart="237.3391617087795">
        <route edges="edgeOutLeft edgeInTop" />
    </vehicle>
    <vehicle id="30" type="car" depart="244.1240573682682">
        <route edges="edgeOutBottom edgeInTop" />
    </vehicle>
    <vehicle id="31" type="bus" depart="249.63524755474288">
        <route edges="edgeOutLeft edgeInRight" />
    </vehicle>
    <vehicle id="32" type="bike" depart="256.80428691703537">
        <route edges="edgeOutBottom edgeInRight" />
    </vehicle>
    <vehicle id="33" type="bus" depart="265.02778568235857">
        <route edges="edgeOutRight edgeInBottom" />
    </vehicle>
    <vehicle id="34" type="bus" depart="270.50301678588903">
        <route edges="edgeOutLeft edgeInBottom" />
    </vehicle>
    <vehicle id="35" type="car" depart="279.2748157530102">
        <route edges="edgeOutLeft edgeInBottom" />
    </vehicle>
    <vehicle id="36" type="car" depart="286.9041455561125">
        <route edges="edgeOutRight edgeInTop" />
    </vehicle>
    <vehicle id="37" type="bike" depart="294.3138437326607">
        <route edges="edgeOutRight edgeInLeft" />
    </vehicle>
    <vehicle id="38" type="bike" depart="303.94914284702566">
        <route edges="edgeOutRight edgeInLeft" />
    </vehicle>
    <vehicle id="39" type="car" depart="311.46564367321156">
        <route edges="edgeOutRight edgeInTop" />
    </vehicle>
    <vehicle id="40" type="car" depart="321.1849372956767">
        <route edges="edgeOutTop edgeInLeft" />
    </vehicle>
    <vehicle id="41" type="car" depart="330.26571654440744">
        <route edges="edgeOutTop edgeInRight" />
    </vehicle>
    <vehicle id="42" type="bus" depart="338.6742684464579">
        <route edges="edgeOutBottom edgeInTop" />
    </vehicle>
    <vehicle id="43" type="car" depart="347.93095741196356">
        <route edges="edgeOutRight edgeInLeft" />
    </vehicle>
    <vehicle id="44" type="bike" depart="354.55721826439657">
        <route edges="edgeOutTop edgeInLeft" />
    </vehicle>
    <vehicle id="45" type="bike" depart="359.67536875584756">
        <route edges="edgeOutBottom edgeInTop" />
    </vehicle>
    <vehicle id="46" type="bike" depart="368.76336025393675">
        <route edges="edgeOutLeft edgeInBottom" />
    </vehicle>
    <vehicle id="47" type="bus" depart="374.41784861779115">
        <route edges="edgeOutBottom edgeInRight" />
    </vehicle>
    <vehicle id="48" type="bus" depart="381.97818852142956">
        <route edges="edgeOutBottom edgeInTop" />
    </vehicle>
    <vehicle id="49" type="car" depart="387.59989116671846">
        <route edges="edgeOutBottom edgeInTop" />
    </vehicle>
    <vehicle id="50" type="car" depart="396.1191578447931">
        <route edges="edgeOutTop edgeInRight" />
    </vehicle>
    <vehicle id="51" type="bus" depart="405.8356625622702">
        <route edges="edgeOutTop edgeInLeft" />
    </vehicle>
    <vehicle id="52" type="bike" depart="413.653782001669">
        <route edges="edgeOutLeft edgeInTop" />
    </vehicle>
    <vehicle id="53" type="car" depart="420.0096690207092">
        <route edges="edgeOutBottom edgeInRight" />
    </vehicle>
    <vehicle id="54" type="car" depart="428.02344976295296">
        <route edges="edgeOutLeft edgeInTop" />
    </vehicle>
    <vehicle id="55" type="bus" depart="436.3188827746394">
        <route edges="edgeOutRight edgeInTop" />
    </vehicle>
    <vehicle id="56" type="bus" depart="442.55304454635075">
        <route edges="edgeOutLeft edgeInBottom" />
    </vehicle>
    <vehicle id="57" type="bike" depart="451.40026634532285">
        <route edges="edgeOutRight edgeInBottom" />
    </vehicle>
    <vehicle id="58" type="bus" depart="456.4098582557576">
        <route edges="edgeOutRight edgeInTop" />
    </vehicle>
    <vehicle id="59" type="car" depart="462.5459496972191">
        <route edges="edgeOutTop edgeInLeft" />
    </vehicle>
    <vehicle id="60" type="bike" depart="470.98855912725514">
        <route edges="edgeOutBottom edgeInTop" />
    </vehicle>
    <vehicle id="61" type="bike" depart="478.1603653088016">
        <route edges="edgeOutLeft edgeInTop" />
    </vehicle>
    <vehicle id="62" type="car" depart="483.66188136606115">
        <route edges="edgeOutRight edgeInBottom" />
    </vehicle>
    <vehicle id="63" type="bus" depart="490.4293833994127">
        <route edges="edgeOutTop edgeInBottom" />
    </vehicle>
    <vehicle id="64" type="bus" depart="499.60424615223667">
        <route edges="edgeOutBottom edgeInTop" />
    </vehicle>
    <vehicle id="65" type="car" depart="508.393301926085">
        <route edges="edgeOutBottom edgeInLeft" />
    </vehicle>
    <vehicle id="66" type="car" depart="513.7348328400998">
        <route edges="edgeOutRight edgeInLeft" />
    </vehicle>
    <vehicle id="67" type="car" depart="520.6424367333017">
        <route edges="edgeOutLeft edgeInTop" />
    </vehicle>
    <vehicle id="68" type="bike" depart="526.0216469970383">
        <route edges="edgeOutRight edgeInLeft" />
    </vehicle>
    <vehicle id="69" type="bus" depart="531.7128873703925">
        <route edges="edgeOutLeft edgeInTop" />
    </vehicle>
    <vehicle id="70" type="bike" depart="539.1014072977683">
        <route edges="edgeOutBottom edgeInRight" />
    </vehicle>
    <vehicle id="71" type="bike" depart="547.6247774466376">
        <route edges="edgeOutTop edgeInLeft" />
    </vehicle>
    <vehicle id="72" type="car" depart="554.3954110447855">
        <route edges="edgeOutBottom edgeInRight" />
    </vehicle>
    <vehicle id="73" type="bike" depart="560.8550182435339">
        <route edges="edgeOutRight edgeInLeft" />
    </vehicle>
    <vehicle id="74" type="car" depart="568.5195645645687">
        <route edges="edgeOutTop edgeInLeft" />
    </vehicle>
    <vehicle id="75" type="bus" depart="575.8701906242392">
        <route edges="edgeOutBottom edgeInLeft" />
    </vehicle>
    <vehicle id="76" type="bus" depart="583.2669548388831">
        <route edges="edgeOutBottom edgeInRight" />
    </vehicle>
    <vehicle id="77" type="car" depart="592.0384293548799">
        <route edges="edgeOutBottom edgeInRight" />
    </vehicle>
    <vehicle id="78" type="bus" depart="600.8628410995423">
        <route edges="edgeOutLeft edgeInBottom" />
    </vehicle>
    <vehicle id="79" type="bus" depart="606.455558128958">
        <route edges="edgeOutLeft edgeInRight" />
    </vehicle>
    <vehicle id="80" type="bus" depart="613.6734885729513">
        <route edges="edgeOutRight edgeInTop" />
    </vehicle>
    <vehicle id="81" type="car" depart="619.0909309712137">
        <route edges="edgeOutRight edgeInLeft" />
    </vehicle>
    <vehicle id="82" type="car" depart="625.5062633929102">
        <route edges="edgeOutBottom edgeInRight" />
    </vehicle>
    <vehicle id="83" type="bike" depart="631.476793484659">
        <route edges="edgeOutTop edgeInLeft" />
    </vehicle>
    <vehicle id="84" type="car" depart="637.6554206971562">
        <route edges="edgeOutBottom edgeInLeft" />
    </vehicle>
    <vehicle id="85" type="bus" depart="644.802265329451">
        <route edges="edgeOutRight edgeInBottom" />
    </vehicle>
    <vehicle id="86" type="car" depart="652.9944288102001">
        <route edges="edgeOutTop edgeInRight" />
    </vehicle>
    <vehicle id="87" type="bike" depart="658.0539537235893">
        <route edges="edgeOutLeft edgeInTop" />
    </vehicle>
    <vehicle id="88" type="bus" depart="665.2717044101928">
        <route edges="edgeOutLeft edgeInBottom" />
    </vehicle>
    <vehicle id="89" type="car" depart="674.8250648859288">
        <route edges="edgeOutBottom edgeInTop" />
    </vehicle>
    <vehicle id="90" type="bike" depart="680.6754935664958">
        <route edges="edgeOutTop edgeInBottom" />
    </vehicle>
    <vehicle id="91" type="bike" depart="689.271489596888">
        <route edges="edgeOutTop edgeInRight" />
    </vehicle>
    <vehicle id="92" type="bike" depart="697.1585471749534">
        <route edges="edgeOutTop edgeInBottom" />
    </vehicle>
    <vehicle id="93" type="car" depart="702.1685840136888">
        <route edges="edgeOutLeft edgeInBottom" />
    </vehicle>
    <vehicle id="94" type="bike" depart="707.4958583600034">
        <route edges="edgeOutRight edgeInLeft" />
    </vehicle>
    <vehicle id="95" type="car" depart="716.7520395375498">
        <route edges="edgeOutRight edgeInBottom" />
    </vehicle>
    <vehicle id="96" type="bus" depart="723.899728069047">
        <route edges="edgeOutBottom edgeInTop" />
    </vehicle>
    <vehicle id="97" type="bus" depart="731.0540007251025">
        <route edges="edgeOutBottom edgeInLeft" />
    </vehicle>
    <vehicle id="98" type="bus" depart="738.4482695439701">
        <route edges="edgeOutLeft edgeInRight" />
    </vehicle>
    <vehicle id="99" type="bus" depart="745.1603973927862">
        <route edges="edgeOutTop edgeInRight" />
    </vehicle>
    <vehicle id="100" type="bike" depart="750.9890533775302">
        <route edges="edgeOutTop edgeInBottom" />
    </vehicle>
    <vehicle id="101" type="bike" depart="760.7666166994557">
        <route edges="edgeOutLeft edgeInTop" />
    </vehicle>
    <vehicle id="102" type="bike" depart="770.6712106405168">
        <route edges="edgeOutLeft edgeInRight" />
    </vehicle>
    <vehicle id="103" type="car" depart="778.0454389986488">
        <route edges="edgeOutTop edgeInBottom" />
    </vehicle>
    <vehicle id="104" type="car" depart="784.2537214053303">
        <route edges="edgeOutBottom edgeInTop" />
    </vehicle>
    <vehicle id="105" type="bus" depart="793.0308246944862">
        <route edges="edgeOutTop edgeInRight" />
    </vehicle>
    <vehicle id="106" type="bike" depart="802.9815820279497">
        <route edges="edgeOutTop edgeInRight" />
    </vehicle>
    <vehicle id="107" type="bike" depart="811.1275669322373">
        <route edges="edgeOutBottom edgeInTop" />
    </vehicle>
    <vehicle id="108" type="car" depart="818.5729559793443">
        <route edges="edgeOutTop edgeInBottom" />
    </vehicle>
    <vehicle id="109" type="bike" depart="823.837725703378">
        <route edges="edgeOutRight edgeInLeft" />
    </vehicle>
    <vehicle id="110" type="bike" depart="829.81103464236">
        <route edges="edgeOutRight edgeInTop" />
    </vehicle>
    <vehicle id="111" type="bus" depart="838.9185869723248">
        <route edges="edgeOutLeft edgeInRight" />
    </vehicle>
    <vehicle id="112" type="bike" depart="844.1629335427538">
        <route edges="edgeOutTop edgeInBottom" />
    </vehicle>
    <vehicle id="113" type="bike" depart="852.2041843157119">
        <route edges="edgeOutTop edgeInBottom" />
    </vehicle>
    <vehicle id="114" type="bike" depart="859.4385890575146">
        <route edges="edgeOutBottom edgeInLeft" />
    </vehicle>
    <vehicle id="115" type="bus" depart="866.7235042928681">
        <route edges="edgeOutTop edgeInBottom" />
    </vehicle>
    <vehicle id="116" type="car" depart="873.6989172373133">
        <route edges="edgeOutRight edgeInLeft" />
    </vehicle>
    <vehicle id="117" type="bus" depart="881.9874617926529">
        <route edges="edgeOutLeft edgeInBottom" />
    </vehicle>
    <vehicle id="118" type="bike" depart="891.8756790509229">
        <route edges="edgeOutRight edgeInLeft" />
    </vehicle>
    <vehicle id="119" type="bus" depart="900.2549447721325">
        <route edges="edgeOutLeft edgeInTop" />
    </vehicle>
    <vehicle id="120" type="car" depart="908.7862717616994">
        <route edges="edgeOutLeft edgeInTop" />
    </vehicle>
    <vehicle id="121" type="bike" depart="914.8843815113526">
        <route edges="edgeOutRight edgeInBottom" />
    </vehicle>
    <vehicle id="122" type="bike" depart="923.3074336113579">
        <route edges="edgeOutTop edgeInLeft" />
    </vehicle>
    <vehicle id="123" type="bus" depart="930.7776473736704">
        <route edges="edgeOutBottom edgeInTop" />
    </vehicle>
    <vehicle id="124" type="bus" depart="937.0065078684855">
        <route edges="edgeOutTop edgeInLeft" />
    </vehicle>
    <vehicle id="125" type="bus" depart="945.9655705840767">
        <route edges="edgeOutTop edgeInBottom" />
    </vehicle>
    <vehicle id="126" type="bus" depart="955.5614877160351">
        <route edges="edgeOutTop edgeInLeft" />
    </vehicle>
    <vehicle id="127" type="bus" depart="963.7702740227686">
        <route edges="edgeOutLeft edgeInRight" />
    </vehicle>
    <vehicle id="128" type="car" depart="970.3982235131793">
        <route edges="edgeOutRight edgeInLeft" />
    </vehicle>
    <vehicle id="129" type="bike" depart="976.2288157726398">
        <route edges="edgeOutTop edgeInBottom" />
    </vehicle>
    <vehicle id="130" type="bike" depart="986.0259317735091">
        <route edges="edgeOutTop edgeInBottom" />
    </vehicle>
    <vehicle id="131" type="bike" depart="991.326139667099">
        <route edges="edgeOutRight edgeInBottom" />
    </vehicle>
    <vehicle id="132" type="bike" depart="1000.792875785647">
        <route edges="edgeOutLeft edgeInTop" />
    </vehicle>
    <vehicle id="133" type="car" depart="1009.5005283599226">
        <route edges="edgeOutTop edgeInBottom" />
    </vehicle>
    <vehicle id="134" type="car" depart="1017.2589808481143">
        <route edges="edgeOutBottom edgeInLeft" />
    </vehicle>
    <vehicle id="135" type="bike" depart="1024.9554930761165">
        <route edges="edgeOutRight edgeInLeft" />
    </vehicle>
    <vehicle id="136" type="car" depart="1033.2691548513233">
        <route edges="edgeOutLeft edgeInRight" />
    </vehicle>
    <vehicle id="137" type="car" depart="1040.5699459594368">
        <route edges="edgeOutLeft edgeInTop" />
    </vehicle>
    <vehicle id="138" type="car" depart="1046.1673408223728">
        <route edges="edgeOutBottom edgeInLeft" />
    </vehicle>
    <vehicle id="139" type="bike" depart="1051.3415197579268">
        <route edges="edgeOutLeft edgeInTop" />
    </vehicle>
    <vehicle id="140" type="bike" depart="1059.3230592698953">
        <route edges="edgeOutLeft edgeInRight" />
    </vehicle>
    <vehicle id="141" type="car" depart="1068.0658766276076">
        <route edges="edgeOutRight edgeInTop" />
    </vehicle>
    <vehicle id="142" type="bus" depart="1074.297825982791">
        <route edges="edgeOutLeft edgeInBottom" />
    </vehicle>
    <vehicle id="143" type="car" depart="1081.3893326499676">
        <route edges="edgeOutLeft edgeInTop" />
    </vehicle>
    <vehicle id="144" type="car" depart="1087.6172539964011">
        <route edges="edgeOutTop edgeInLeft" />
    </vehicle>
    <vehicle id="145" type="bus" depart="1095.249855251132">
        <route edges="edgeOutTop edgeInLeft" />
    </vehicle>
    <vehicle id="146" type="bike" depart="1100.3019041173338">
        <route edges="edgeOutBottom edgeInLeft" />
    </vehicle>
    <vehicle id="147" type="bike" depart="1109.2243525238157">
        <route edges="edgeOutTop edgeInBottom" />
    </vehicle>
    <vehicle id="148" type="car" depart="1117.715181237832">
        <route edges="edgeOutLeft edgeInTop" />
    </vehicle>
    <vehicle id="149" type="car" depart="1126.0849498489526">
        <route edges="edgeOutRight edgeInBottom" />
    </vehicle>
    <vehicle id="150" type="bus" depart="1135.443089851704">
        <route edges="edgeOutLeft edgeInRight" />
    </vehicle>
    <vehicle id="151" type="bike" depart="1141.7427518004056">
        <route edges="edgeOutBottom edgeInRight" />
    </vehicle>
    <vehicle id="152" type="car" depart="1148.3306375012414">
        <route edges="edgeOutTop edgeInRight" />
    </vehicle>
    <vehicle id="153" type="bike" depart="1155.2363071670504">
        <route edges="edgeOutBottom edgeInLeft" />
    </vehicle>
    <vehicle id="154" type="bus" depart="1164.5485497113416">
        <route edges="edgeOutTop edgeInRight" />
    </vehicle>
    <vehicle id="155" type="car" depart="1172.0033058878173">
        <route edges="edgeOutLeft edgeInTop" />
    </vehicle>
    <vehicle id="156" type="bike" depart="1179.2492619389743">
        <route edges="edgeOutBottom edgeInRight" />
    </vehicle>
    <vehicle id="157" type="bike" depart="1185.0161375637058">
        <route edges="edgeOutLeft edgeInBottom" />
    </vehicle>
    <vehicle id="158" type="bus" depart="1191.028875458917">
        <route edges="edgeOutTop edgeInLeft" />
    </vehicle>
    <vehicle id="159" type="car" depart="1196.4434619898102">
        <route edges="edgeOutBottom edgeInTop" />
    </vehicle>
    <vehicle id="160" type="car" depart="1205.9996491079603">
        <route edges="edgeOutLeft edgeInRight" />
    </vehicle>
    <vehicle id="161" type="bike" depart="1211.2649968371793">
        <route edges="edgeOutRight edgeInTop" />
    </vehicle>
    <vehicle id="162" type="bike" depart="1220.2016718834786">
        <route edges="edgeOutBottom edgeInRight" />
    </vehicle>
    <vehicle id="163" type="bus" depart="1225.3228715652494">
        <route edges="edgeOutLeft edgeInTop" />
    </vehicle>
    <vehicle id="164" type="car" depart="1230.9386682826391">
        <route edges="edgeOutBottom edgeInTop" />
    </vehicle>
    <vehicle id="165" type="bus" depart="1239.8721728679468">
        <route edges="edgeOutRight edgeInBottom" />
    </vehicle>
    <vehicle id="166" type="bus" depart="1245.7645230803264">
        <route edges="edgeOutRight edgeInTop" />
    </vehicle>
    <vehicle id="167" type="bus" depart="1252.565037581222">
        <route edges="edgeOutLeft edgeInBottom" />
    </vehicle>
    <vehicle id="168" type="car" depart="1259.366516045664">
        <route edges="edgeOutRight edgeInTop" />
    </vehicle>
    <vehicle id="169" type="car" depart="1268.9319728378778">
        <route edges="edgeOutRight edgeInBottom" />
    </vehicle>
    <vehicle id="170" type="car" depart="1278.75784486658">
        <route edges="edgeOutLeft edgeInRight" />
    </vehicle>
    <vehicle id="171" type="bike" depart="1286.059950325573">
        <route edges="edgeOutTop edgeInRight" />
    </vehicle>
    <vehicle id="172" type="car" depart="1294.1942403153027">
        <route edges="edgeOutBottom edgeInRight" />
    </vehicle>
    <vehicle id="173" type="car" depart="1300.1323601837453">
        <route edges="edgeOutLeft edgeInRight" />
    </vehicle>
    <vehicle id="174" type="bike" depart="1305.2491304033094">
        <route edges="edgeOutBottom edgeInRight" />
    </vehicle>
    <vehicle id="175" type="bike" depart="1312.5321247415545">
        <route edges="edgeOutLeft edgeInBottom" />
    </vehicle>
    <vehicle id="176" type="car" depart="1319.5077073379068">
        <route edges="edgeOutRight edgeInBottom" />
    </vehicle>
    <vehicle id="177" type="car" depart="1328.8706570849686">
        <route edges="edgeOutBottom edgeInLeft" />
    </vehicle>
    <vehicle id="178" type="bike" depart="1335.6071578922551">
        <route edges="edgeOutTop edgeInRight" />
    </vehicle>
    <vehicle id="179" type="bus" depart="1342.7387520730363">
        <route edges="edgeOutRight edgeInBottom" />
    </vehicle>
    <vehicle id="180" type="bike" depart="1352.2557699785577">
        <route edges="edgeOutBottom edgeInLeft" />
    </vehicle>
    <vehicle id="181" type="bus" depart="1362.16909305919">
        <route edges="edgeOutTop edgeInBottom" />
    </vehicle>
    <vehicle id="182" type="bike" depart="1368.3849013138818">
        <route edges="edgeOutLeft edgeInRight" />
    </vehicle>
    <vehicle id="183" type="car" depart="1376.91360045581">
        <route edges="edgeOutLeft edgeInRight" />
    </vehicle>
    <vehicle id="184" type="bus" depart="1381.9191657658075">
        <route edges="edgeOutRight edgeInLeft" />
    </vehicle>
    <vehicle id="185" type="bike" depart="1387.7151421696494">
        <route edges="edgeOutLeft edgeInBottom" />
    </vehicle>
    <vehicle id="186" type="bus" depart="1395.4826081429114">
        <route edges="edgeOutRight edgeInTop" />
    </vehicle>
    <vehicle id="187" type="bike" depart="1403.5181846615371">
        <route edges="edgeOutTop edgeInRight" />
    </vehicle>
    <vehicle id="188" type="car" depart="1410.9002394556244">
        <route edges="edgeOutRight edgeInTop" />
    </vehicle>
    <vehicle id="189" type="bike" depart="1417.9520158913322">
        <route edges="edgeOutBottom edgeInTop" />
    </vehicle>
    <vehicle id="190" type="bike" depart="1427.5267221105694">
        <route edges="edgeOutRight edgeInLeft" />
    </vehicle>
    <vehicle id="191" type="bus" depart="1434.8178240213415">
        <route edges="edgeOutBottom edgeInTop" />
    </vehicle>
    <vehicle id="192" type="car" depart="1440.835922380652">
        <route edges="edgeOutTop edgeInBottom" />
    </vehicle>
    <vehicle id="193" type="bike" depart="1450.0536697301513">
        <route edges="edgeOutRight edgeInBottom" />
    </vehicle>
    <vehicle id="194" type="bus" depart="1457.7085707459573">
        <route edges="edgeOutRight edgeInTop" />
    </vehicle>
    <vehicle id="195" type="bus" depart="1463.2793067350865">
        <route edges="edgeOutBottom edgeInLeft" />
    </vehicle>
    <vehicle id="196" type="bike" depart="1468.6363189458523">
        <route edges="edgeOutBottom edgeInRight" />
    </vehicle>
    <vehicle id="197" type="bike" depart="1475.2167972593572">
        <route edges="edgeOutRight edgeInLeft" />
    </vehicle>
    <vehicle id="198" type="bike" depart="1484.197584930762">
        <route edges="edgeOutBottom edgeInRight" />
    </vehicle>
    <vehicle id="199" type="car" depart="1491.2920905382625">
        <route edges="edgeOutBottom edgeInTop" />
    </vehicle>
    <vehicle id="200" type="bike" depart="1497.2129841559624">
        <route edges="edgeOutBottom edgeInTop" />
    </vehicle>
    <vehicle id="201" type="car" depart="1503.7028783421051">
        <route edges="edgeOutTop edgeInRight" />
    </vehicle>
    <vehicle id="202" type="bike" depart="1511.2207916997631">
        <route edges="edgeOutBottom edgeInTop" />
    </vehicle>
    <vehicle id="203" type="car" depart="1518.0251654794922">
        <route edges="edgeOutBottom edgeInLeft" />
    </vehicle>
    <vehicle id="204" type="car" depart="1524.4123007769847">
        <route edges="edgeOutRight edgeInBottom" />
    </vehicle>
    <vehicle id="205" type="bike" depart="1532.7690690346376">
        <route edges="edgeOutRight edgeInTop" />
    </vehicle>
    <vehicle id="206" type="bus" depart="1539.1678294835026">
        <route edges="edgeOutTop edgeInLeft" />
    </vehicle>
    <vehicle id="207" type="bike" depart="1546.3467171350667">
        <route edges="edgeOutTop edgeInRight" />
    </vehicle>
    <vehicle id="208" type="bike" depart="1554.8407401759318">
        <route edges="edgeOutBottom edgeInTop" />
    </vehicle>
    <vehicle id="209" type="bus" depart="1563.4239154918432">
        <route edges="edgeOutBottom edgeInRight" />
    </vehicle>
    <vehicle id="210" type="bike" depart="1571.6393823328422">
        <route edges="edgeOutTop edgeInLeft" />
    </vehicle>
    <vehicle id="211" type="bike" depart="1577.9076725802809">
        <route edges="edgeOutRight edgeInLeft" />
    </vehicle>
    <vehicle id="212" type="bike" depart="1586.25480296109">
        <route edges="edgeOutBottom edgeInRight" />
    </vehicle>
    <vehicle id="213" type="bus" depart="1595.527478367402">
        <route edges="edgeOutTop edgeInLeft" />
    </vehicle>
    <vehicle id="214" type="bus" depart="1602.4289235624933">
        <route edges="edgeOutLeft edgeInBottom" />
    </vehicle>
    <vehicle id="215" type="bus" depart="1607.7210520012911">
        <route edges="edgeOutBottom edgeInRight" />
    </vehicle>
    <vehicle id="216" type="bus" depart="1613.8251585065748">
        <route edges="edgeOutRight edgeInTop" />
    </vehicle>
    <vehicle id="217" type="bus" depart="1621.3824200486847">
        <route edges="edgeOutRight edgeInLeft" />
    </vehicle>
    <vehicle id="218" type="bus" depart="1631.2718341919892">
        <route edges="edgeOutBottom edgeInRight" />
    </vehicle>
    <vehicle id="219" type="bike" depart="1637.9862493113017">
        <route edges="edgeOutTop edgeInLeft" />
    </vehicle>
    <vehicle id="220" type="bike" depart="1647.1666827998588">
        <route edges="edgeOutTop edgeInRight" />
    </vehicle>
    <vehicle id="221" type="bike" depart="1652.898319224348">
        <route edges="edgeOutRight edgeInLeft" />
    </vehicle>
    <vehicle id="222" type="bus" depart="1659.0704224801639">
        <route edges="edgeOutRight edgeInBottom" />
    </vehicle>
    <vehicle id="223" type="bus" depart="1664.6499985381413">
        <route edges="edgeOutBottom edgeInTop" />
    </vehicle>
    <vehicle id="224" type="bike" depart="1671.283983036614">
        <route edges="edgeOutBottom edgeInLeft" />
    </vehicle>
    <vehicle id="225" type="bus" depart="1680.733897301313">
        <route edges="edgeOutBottom edgeInTop" />
    </vehicle>
    <vehicle id="226" type="car" depart="1686.4259159871601">
        <route edges="edgeOutLeft edgeInRight" />
    </vehicle>
    <vehicle id="227" type="car" depart="1693.6986580239068">
        <route edges="edgeOutBottom edgeInTop" />
    </vehicle>
    <vehicle id="228" type="bus" depart="1702.6603225616968">
        <route edges="edgeOutBottom edgeInLeft" />
    </vehicle>
    <vehicle id="229" type="bus" depart="1710.8148936835755">
        <route edges="edgeOutTop edgeInLeft" />
    </vehicle>
    <vehicle id="230" type="bike" depart="1720.049889302981">
        <route edges="edgeOutTop edgeInLeft" />